<nodes>
    <node id="5755" x="-29323380.0" y="9082110.0" z="0.0" type="traffic_light"/>
    <node id="5712" x="-29321700.0" y="9081330.0" z="0.0" type="traffic_light"/>
    <node id="6340" x="-29321400.0" y="9086880.0" z="0.0" type="traffic_light"/>
    <node id="5751" x="-29322000.0" y="9078630.0" z="0.0" type="priority"/>
    <node id="5414" x="-29324190.0" y="9079860.0" z="0.0" type="traffic_light"/>
    <node id="5763" x="-29320620.0" y="9079470.0" z="0.0" type="priority"/>
    <node id="13054" x="-29323260.000000004" y="9084390.0" z="0.0" type="priority"/>
    <node id="125763" x="-29320620.0" y="9079470.0" z="0.0" type="unregulated"/>
    <node id="6390" x="-29318760.0" y="9084420.0" z="0.0" type="priority"/>
    <node id="5771" x="-29321190.0" y="9079890.0" z="0.0" type="priority"/>
    <node id="100386" x="-29319450.0" y="9084690.0" z="0.0" type="unregulated"/>
    <node id="13157" x="-29323830.0" y="9082800.0" z="0.0" type="priority"/>
    <node id="10491" x="-29323170.0" y="9079560.0" z="0.0" type="traffic_light"/>
    <node id="13149" x="-29322840.0" y="9081030.0" z="0.0" type="priority"/>
    <node id="5728" x="-29322930.0" y="9081360.0" z="0.0" type="traffic_light"/>
    <node id="5455" x="-29323560.0" y="9081540.0" z="0.0" type="traffic_light"/>
    <node id="12673" x="-29320260.0" y="9080370.0" z="0.0" type="priority"/>
    <node id="5743" x="-29322960.0" y="9078900.0" z="0.0" type="traffic_light"/>
    <node id="13053" x="-29322930.0" y="9084300.0" z="0.0" type="priority"/>
    <node id="13070" x="-29323680.0" y="9082200.0" z="0.0" type="priority"/>
    <node id="9910" x="-29318370.0" y="9084690.0" z="0.0" type="priority"/>
    <node id="6167" x="-29324550.000000004" y="9089430.0" z="0.0" type="traffic_light"/>
    <node id="13137" x="-29322629.999999996" y="9080370.0" z="0.0" type="priority"/>
    <node id="6175" x="-29324429.999999996" y="9085650.0" z="0.0" type="priority"/>
    <node id="5587" x="-29324460.0" y="9082110.0" z="0.0" type="priority"/>
    <node id="13089" x="-29325420.0" y="9080520.0" z="0.0" type="priority"/>
    <node id="12169" x="-29317920.0" y="9085140.0" z="0.0" type="priority"/>
    <node id="13101" x="-29325660.0" y="9086940.0" z="0.0" type="priority"/>
    <node id="6379" x="-29317020.0" y="9086700.0" z="0.0" type="priority"/>
    <node id="5588" x="-29324760.0" y="9081270.0" z="0.0" type="priority"/>
    <node id="13136" x="-29322150.0" y="9080100.0" z="0.0" type="priority"/>
    <node id="6364" x="-29323410.0" y="9090810.0" z="0.0" type="priority"/>
    <node id="11085" x="-29323440.0" y="9085980.0" z="0.0" type="priority"/>
    <node id="13119" x="-29318160.0" y="9087330.0" z="0.0" type="traffic_light"/>
    <node id="13123" x="-29320770.0" y="9089040.0" z="0.0" type="priority"/>
    <node id="126364" x="-29323410.0" y="9090810.0" z="0.0" type="unregulated"/>
    <node id="11081" x="-29322780.0" y="9082680.0" z="0.0" type="traffic_light"/>
    <node id="10486" x="-29324340.0" y="9082380.0" z="0.0" type="priority"/>
    <node id="13176" x="-29324310.0" y="9086760.0" z="0.0" type="priority"/>
    <node id="6326" x="-29318730.0" y="9086520.0" z="0.0" type="traffic_light"/>
    <node id="11574" x="-29319990.0" y="9084510.0" z="0.0" type="priority"/>
    <node id="5689" x="-29319330.0" y="9082680.0" z="0.0" type="priority"/>
    <node id="12266" x="-29323200.0" y="9085170.0" z="0.0" type="priority"/>
    <node id="13020" x="-29322030.0" y="9081420.0" z="0.0" type="traffic_light"/>
    <node id="10490" x="-29322120.0" y="9079290.0" z="0.0" type="priority"/>
    <node id="5456" x="-29324550.000000004" y="9081810.0" z="0.0" type="priority"/>
    <node id="13140" x="-29321250.0" y="9080280.0" z="0.0" type="priority"/>
    <node id="13165" x="-29323139.999999996" y="9082710.0" z="0.0" type="priority"/>
    <node id="5469" x="-29323650.000000004" y="9078270.0" z="0.0" type="priority"/>
    <node id="13159" x="-29323470.0" y="9083730.0" z="0.0" type="priority"/>
    <node id="13180" x="-29323230.0" y="9088350.0" z="0.0" type="priority"/>
    <node id="100383" x="-29320770.0" y="9081210.0" z="0.0" type="unregulated"/>
    <node id="100384" x="-29320110.0" y="9082140.0" z="0.0" type="unregulated"/>
    <node id="100405" x="-29323800.0" y="9079650.0" z="0.0" type="unregulated"/>
    <node id="5144" x="-29319390.0" y="9082830.0" z="0.0" type="priority"/>
    <node id="5758" x="-29322330.0" y="9081810.0" z="0.0" type="traffic_light"/>
    <node id="12137" x="-29324010.0" y="9085620.0" z="0.0" type="priority"/>
    <node id="125469" x="-29323650.000000004" y="9078270.0" z="0.0" type="unregulated"/>
    <node id="6328" x="-29320410.0" y="9086790.0" z="0.0" type="traffic_light"/>
    <node id="5765" x="-29320200.0" y="9080580.0" z="0.0" type="priority"/>
    <node id="11337" x="-29322180.0" y="9085110.0" z="0.0" type="priority"/>
    <node id="13018" x="-29323020.0" y="9081090.0" z="0.0" type="traffic_light"/>
    <node id="6184" x="-29324250.0" y="9087270.0" z="0.0" type="priority"/>
    <node id="13062" x="-29323560.0" y="9082530.0" z="0.0" type="priority"/>
    <node id="5721" x="-29320170.0" y="9080280.0" z="0.0" type="priority"/>
    <node id="6305" x="-29322360.000000004" y="9087600.0" z="0.0" type="traffic_light"/>
    <node id="13077" x="-29324100.0" y="9082020.0" z="0.0" type="priority"/>
    <node id="6349" x="-29322150.0" y="9084390.0" z="0.0" type="traffic_light"/>
    <node id="13171" x="-29320080.0" y="9083820.0" z="0.0" type="priority"/>
    <node id="6338" x="-29321220.0" y="9085050.0" z="0.0" type="priority"/>
    <node id="100379" x="-29322060.0" y="9081210.0" z="0.0" type="unregulated"/>
    <node id="5741" x="-29323230.0" y="9080520.0" z="0.0" type="traffic_light"/>
    <node id="13153" x="-29323710.0" y="9082590.0" z="0.0" type="priority"/>
    <node id="6371" x="-29317560.0" y="9085680.0" z="0.0" type="priority"/>
    <node id="5584" x="-29324730.0" y="9080340.0" z="0.0" type="priority"/>
    <node id="6348" x="-29323529.999999996" y="9085200.0" z="0.0" type="priority"/>
    <node id="13178" x="-29323380.0" y="9086610.0" z="0.0" type="priority"/>
    <node id="13158" x="-29323620.0" y="9083400.0" z="0.0" type="priority"/>
    <node id="5740" x="-29322840.0" y="9080430.0" z="0.0" type="traffic_light"/>
    <node id="11208" x="-29319000.0" y="9086220.0" z="0.0" type="priority"/>
    <node id="13173" x="-29322450.0" y="9086490.0" z="0.0" type="priority"/>
    <node id="13169" x="-29321250.0" y="9084150.0" z="0.0" type="priority"/>
    <node id="13069" x="-29324039.999999996" y="9083220.0" z="0.0" type="priority"/>
    <node id="100378" x="-29323110.0" y="9081300.0" z="0.0" type="unregulated"/>
    <node id="5744" x="-29322629.999999996" y="9078810.0" z="0.0" type="traffic_light"/>
    <node id="5206" x="-29319270.0" y="9082530.0" z="0.0" type="priority"/>
    <node id="5749" x="-29323650.000000004" y="9080340.0" z="0.0" type="traffic_light"/>
    <node id="12734" x="-29322239.999999996" y="9080880.0" z="0.0" type="traffic_light"/>
    <node id="5764" x="-29321250.0" y="9079650.0" z="0.0" type="traffic_light"/>
    <node id="5745" x="-29323440.0" y="9079980.0" z="0.0" type="priority"/>
    <node id="13052" x="-29324700.0" y="9084480.0" z="0.0" type="priority"/>
    <node id="5687" x="-29319090.0" y="9083220.0" z="0.0" type="priority"/>
    <node id="13155" x="-29324460.0" y="9083010.0" z="0.0" type="priority"/>
    <node id="10615" x="-29319510.0" y="9079770.0" z="0.0" type="priority"/>
    <node id="130615" x="-29319510.0" y="9079770.0" z="0.0" type="unregulated"/>
    <node id="13060" x="-29322810.0" y="9084570.0" z="0.0" type="priority"/>
    <node id="13043" x="-29323650.000000004" y="9083280.0" z="0.0" type="priority"/>
    <node id="13144" x="-29322480.0" y="9081390.0" z="0.0" type="priority"/>
    <node id="13175" x="-29323290.0" y="9086370.0" z="0.0" type="priority"/>
    <node id="5142" x="-29318910.0" y="9083580.0" z="0.0" type="priority"/>
    <node id="9911" x="-29318730.0" y="9084300.0" z="0.0" type="priority"/>
    <node id="5784" x="-29321160.0" y="9081870.0" z="0.0" type="priority"/>
    <node id="6146" x="-29323560.0" y="9084810.0" z="0.0" type="traffic_light"/>
    <node id="13011" x="-29321160.0" y="9080880.0" z="0.0" type="priority"/>
    <node id="13102" x="-29323350.0" y="9086790.0" z="0.0" type="priority"/>
    <node id="5656" x="-29320710.0" y="9078420.0" z="0.0" type="priority"/>
    <node id="10261" x="-29317770.0" y="9085650.0" z="0.0" type="priority"/>
    <node id="133118" x="-29317010.6941248" y="9086790.0" z="0.0" type="unregulated"/>
    <node id="10610" x="-29320590.0" y="9083340.0" z="0.0" type="priority"/>
    <node id="11605" x="-29325660.0" y="9082560.0" z="0.0" type="priority"/>
    <node id="13034" x="-29321760.0" y="9083370.0" z="0.0" type="priority"/>
    <node id="11080" x="-29322930.0" y="9082320.0" z="0.0" type="traffic_light"/>
    <node id="5189" x="-29322570.0" y="9083280.0" z="0.0" type="traffic_light"/>
    <node id="13177" x="-29323350.0" y="9087000.0" z="0.0" type="priority"/>
    <node id="5773" x="-29320500.0" y="9081690.0" z="0.0" type="traffic_light"/>
    <node id="100361" x="-29321280.0" y="9087660.0" z="0.0" type="unregulated"/>
    <node id="5779" x="-29320620.0" y="9081360.0" z="0.0" type="traffic_light"/>
    <node id="13161" x="-29321670.0" y="9083010.0" z="0.0" type="priority"/>
    <node id="13032" x="-29321940.0" y="9084000.0" z="0.0" type="priority"/>
    <node id="5776" x="-29319570.0" y="9081900.0" z="0.0" type="priority"/>
    <node id="5724" x="-29320860.0" y="9080790.0" z="0.0" type="priority"/>
    <node id="13076" x="-29324010.0" y="9082290.0" z="0.0" type="priority"/>
    <node id="13111" x="-29324310.0" y="9079590.0" z="0.0" type="traffic_light"/>
    <node id="11966" x="-29325300.0" y="9086520.0" z="0.0" type="priority"/>
    <node id="13031" x="-29322030.0" y="9083760.0" z="0.0" type="priority"/>
    <node id="13196" x="-29323260.000000004" y="9084720.0" z="0.0" type="priority"/>
    <node id="5655" x="-29321790.0" y="9078120.0" z="0.0" type="priority"/>
    <node id="5471" x="-29323770.0" y="9081000.0" z="0.0" type="traffic_light"/>
    <node id="6232" x="-29325180.0" y="9084000.0" z="0.0" type="priority"/>
    <node id="13017" x="-29321280.0" y="9080610.0" z="0.0" type="priority"/>
    <node id="12735" x="-29323350.0" y="9081180.0" z="0.0" type="traffic_light"/>
    <node id="13061" x="-29323230.0" y="9083460.0" z="0.0" type="traffic_light"/>
    <node id="11791" x="-29316930.0" y="9086700.0" z="0.0" type="priority"/>
    <node id="131791" x="-29316930.0" y="9086700.0" z="0.0" type="unregulated"/>
    <node id="6361" x="-29321520.0" y="9088410.0" z="0.0" type="priority"/>
    <node id="13026" x="-29323770.0" y="9082950.0" z="0.0" type="priority"/>
    <node id="13049" x="-29323350.0" y="9084120.0" z="0.0" type="priority"/>
    <node id="100403" x="-29325810.0" y="9080280.0" z="0.0" type="unregulated"/>
    <node id="13124" x="-29322180.0" y="9089670.0" z="0.0" type="priority"/>
    <node id="9915" x="-29317170.0" y="9086430.0" z="0.0" type="priority"/>
    <node id="5789" x="-29321280.0" y="9081540.0" z="0.0" type="traffic_light"/>
    <node id="13065" x="-29324220.0" y="9083760.0" z="0.0" type="traffic_light"/>
    <node id="5769" x="-29320530.0" y="9079290.0" z="0.0" type="priority"/>
    <node id="5737" x="-29323110.0" y="9079740.0" z="0.0" type="priority"/>
    <node id="5680" x="-29320650.0" y="9078600.0" z="0.0" type="priority"/>
    <node id="12036" x="-29320980.0" y="9087540.0" z="0.0" type="priority"/>
    <node id="12010" x="-29323890.0" y="9089130.0" z="0.0" type="priority"/>
    <node id="6344" x="-29321100.0" y="9086850.0" z="0.0" type="priority"/>
    <node id="13073" x="-29324010.0" y="9081360.0" z="0.0" type="priority"/>
    <node id="12022" x="-29321070.0" y="9088590.0" z="0.0" type="priority"/>
    <node id="12078" x="-29319330.0" y="9083850.0" z="0.0" type="priority"/>
    <node id="6391" x="-29318160.0" y="9084720.0" z="0.0" type="priority"/>
    <node id="11272" x="-29322270.0" y="9089520.0" z="0.0" type="priority"/>
    <node id="13080" x="-29324429.999999996" y="9081180.0" z="0.0" type="priority"/>
    <node id="13050" x="-29324010.0" y="9084300.0" z="0.0" type="priority"/>
    <node id="6336" x="-29322540.0" y="9085500.0" z="0.0" type="traffic_light"/>
    <node id="13183" x="-29324070.0" y="9089220.0" z="0.0" type="priority"/>
    <node id="11044" x="-29324310.0" y="9086820.0" z="0.0" type="priority"/>
    <node id="5659" x="-29321040.0" y="9078360.0" z="0.0" type="priority"/>
    <node id="125659" x="-29321040.0" y="9078360.0" z="0.0" type="unregulated"/>
    <node id="12044" x="-29320890.0" y="9088890.0" z="0.0" type="priority"/>
    <node id="11298" x="-29319780.0" y="9085560.0" z="0.0" type="priority"/>
    <node id="12642" x="-29319570.0" y="9082350.0" z="0.0" type="priority"/>
    <node id="13051" x="-29324370.0" y="9084390.0" z="0.0" type="priority"/>
    <node id="5727" x="-29321790.0" y="9081060.0" z="0.0" type="traffic_light"/>
    <node id="13163" x="-29324039.999999996" y="9081240.0" z="0.0" type="priority"/>
    <node id="13099" x="-29325480.0" y="9084030.0" z="0.0" type="priority"/>
    <node id="133099" x="-29325480.0" y="9084030.0" z="0.0" type="unregulated"/>
    <node id="133192" x="-29305470.0" y="9097680.0" z="0.0" type="unregulated"/>
    <node id="5199" x="-29318790.0" y="9083970.0" z="0.0" type="priority"/>
    <node id="12674" x="-29320020.0" y="9080310.0" z="0.0" type="priority"/>
    <node id="100362" x="-29321190.0" y="9085410.0" z="0.0" type="unregulated"/>
    <node id="6342" x="-29320050.000000004" y="9086130.0" z="0.0" type="priority"/>
    <node id="5585" x="-29325060.000000004" y="9080430.0" z="0.0" type="priority"/>
    <node id="6398" x="-29317538.999999996" y="9085995.6" z="0.0" type="priority"/>
    <node id="126398" x="-29317538.999999996" y="9085995.6" z="0.0" type="unregulated"/>
    <node id="13115" x="-29320710.0" y="9079200.0" z="0.0" type="priority"/>
    <node id="133115" x="-29320710.0" y="9079200.0" z="0.0" type="unregulated"/>
    <node id="5672" x="-29320890.0" y="9078570.0" z="0.0" type="priority"/>
    <node id="13179" x="-29322360.000000004" y="9087390.0" z="0.0" type="priority"/>
    <node id="6356" x="-29320410.0" y="9087300.0" z="0.0" type="traffic_light"/>
    <node id="13041" x="-29322600.0" y="9084180.0" z="0.0" type="priority"/>
    <node id="13066" x="-29324310.0" y="9083430.0" z="0.0" type="priority"/>
    <node id="11531" x="-29324100.0" y="9083040.0" z="0.0" type="priority"/>
    <node id="101410" x="-29324400.0" y="9084480.0" z="0.0" type="unregulated"/>
    <node id="5553" x="-29327130.0" y="9079350.0" z="0.0" type="priority"/>
    <node id="125553" x="-29327130.0" y="9079350.0" z="0.0" type="unregulated"/>
    <node id="6346" x="-29322570.0" y="9084510.0" z="0.0" type="traffic_light"/>
    <node id="5685" x="-29323380.0" y="9079020.0" z="0.0" type="traffic_light"/>
    <node id="6183" x="-29323320.0" y="9087210.0" z="0.0" type="priority"/>
    <node id="5778" x="-29320470.0" y="9082680.0" z="0.0" type="traffic_light"/>
    <node id="5691" x="-29319750.0" y="9081090.0" z="0.0" type="priority"/>
    <node id="13142" x="-29321460.0" y="9079710.0" z="0.0" type="priority"/>
    <node id="12282" x="-29322810.0" y="9081660.0" z="0.0" type="traffic_light"/>
    <node id="13010" x="-29321910.0" y="9080760.0" z="0.0" type="traffic_light"/>
    <node id="13107" x="-29322870.0" y="9079170.0" z="0.0" type="traffic_light"/>
    <node id="6395" x="-29319000.0" y="9083970.0" z="0.0" type="priority"/>
    <node id="5785" x="-29319330.0" y="9082260.0" z="0.0" type="priority"/>
    <node id="6355" x="-29320290.0" y="9084120.0" z="0.0" type="priority"/>
    <node id="6144" x="-29323410.0" y="9086370.0" z="0.0" type="traffic_light"/>
    <node id="11551" x="-29320319.999999996" y="9078150.0" z="0.0" type="priority"/>
    <node id="13146" x="-29322990.0" y="9081690.0" z="0.0" type="priority"/>
    <node id="6236" x="-29324939.999999996" y="9085170.0" z="0.0" type="priority"/>
    <node id="131551" x="-29320319.999999996" y="9078150.0" z="0.0" type="unregulated"/>
    <node id="6147" x="-29324490.0" y="9085080.0" z="0.0" type="priority"/>
    <node id="6376" x="-29318250.000000004" y="9084930.0" z="0.0" type="priority"/>
    <node id="5669" x="-29319270.0" y="9079050.0" z="0.0" type="priority"/>
    <node id="126376" x="-29318250.000000004" y="9084930.0" z="0.0" type="unregulated"/>
    <node id="125669" x="-29319270.0" y="9079050.0" z="0.0" type="unregulated"/>
    <node id="5719" x="-29322750.000000004" y="9080700.0" z="0.0" type="traffic_light"/>
    <node id="5726" x="-29323139.999999996" y="9080790.0" z="0.0" type="traffic_light"/>
    <node id="13194" x="-29322900.0" y="9086760.0" z="0.0" type="priority"/>
    <node id="100406" x="-29322720.0" y="9079140.0" z="0.0" type="unregulated"/>
    <node id="13093" x="-29324640.0" y="9081540.0" z="0.0" type="priority"/>
    <node id="10458" x="-29322330.0" y="9079650.0" z="0.0" type="priority"/>
    <node id="13174" x="-29322540.0" y="9085350.0" z="0.0" type="priority"/>
    <node id="12669" x="-29323860.0" y="9079770.0" z="0.0" type="traffic_light"/>
    <node id="11484" x="-29324850.0" y="9082890.0" z="0.0" type="priority"/>
    <node id="5454" x="-29323980.0" y="9080430.0" z="0.0" type="traffic_light"/>
    <node id="6318" x="-29320800.0" y="9087960.0" z="0.0" type="priority"/>
    <node id="11756" x="-29325720.0" y="9079710.0" z="0.0" type="priority"/>
    <node id="12065" x="-29323290.0" y="9087600.0" z="0.0" type="priority"/>
    <node id="6337" x="-29321820.0" y="9084300.0" z="0.0" type="priority"/>
    <node id="13046" x="-29324130.0" y="9084000.0" z="0.0" type="priority"/>
    <node id="11502" x="-29318220.0" y="9085470.0" z="0.0" type="priority"/>
    <node id="100356" x="-29323770.0" y="9087390.0" z="0.0" type="unregulated"/>
    <node id="6347" x="-29322960.0" y="9084630.0" z="0.0" type="priority"/>
    <node id="13012" x="-29321070.0" y="9081150.0" z="0.0" type="priority"/>
    <node id="6392" x="-29318400.0" y="9084240.0" z="0.0" type="priority"/>
    <node id="126392" x="-29318400.0" y="9084240.0" z="0.0" type="unregulated"/>
    <node id="11536" x="-29326739.999999996" y="9081240.0" z="0.0" type="priority"/>
    <node id="131536" x="-29326739.999999996" y="9081240.0" z="0.0" type="unregulated"/>
    <node id="100404" x="-29324820.0" y="9079950.0" z="0.0" type="unregulated"/>
    <node id="5742" x="-29322960.0" y="9080130.0" z="0.0" type="traffic_light"/>
    <node id="5725" x="-29321490.0" y="9080970.0" z="0.0" type="priority"/>
    <node id="13096" x="-29325150.0" y="9089910.0" z="0.0" type="priority"/>
    <node id="133096" x="-29325150.0" y="9089910.0" z="0.0" type="unregulated"/>
    <node id="6343" x="-29320110.0" y="9085590.0" z="0.0" type="priority"/>
    <node id="6370" x="-29317410.0" y="9085920.0" z="0.0" type="priority"/>
    <node id="5151" x="-29322900.0" y="9083370.0" z="0.0" type="traffic_light"/>
    <node id="5198" x="-29319960.0" y="9083160.0" z="0.0" type="priority"/>
    <node id="13055" x="-29323560.0" y="9084450.0" z="0.0" type="priority"/>
    <node id="13154" x="-29324580.0" y="9082650.0" z="0.0" type="priority"/>
    <node id="13013" x="-29321700.0" y="9080400.0" z="0.0" type="traffic_light"/>
    <node id="6322" x="-29319090.0" y="9084060.0" z="0.0" type="priority"/>
    <node id="10460" x="-29322330.0" y="9078720.0" z="0.0" type="traffic_light"/>
    <node id="9913" x="-29316510.0" y="9087420.0" z="0.0" type="priority"/>
    <node id="13042" x="-29323320.0" y="9083160.0" z="0.0" type="priority"/>
    <node id="129913" x="-29316510.0" y="9087420.0" z="0.0" type="unregulated"/>
    <node id="6304" x="-29322840.0" y="9088620.0" z="0.0" type="traffic_light"/>
    <node id="13156" x="-29324010.0" y="9083700.0" z="0.0" type="priority"/>
    <node id="11229" x="-29320710.0" y="9089160.0" z="0.0" type="priority"/>
    <node id="12737" x="-29326020.0" y="9081810.0" z="0.0" type="priority"/>
    <node id="100358" x="-29324490.0" y="9085530.0" z="0.0" type="unregulated"/>
    <node id="131229" x="-29320710.0" y="9089160.0" z="0.0" type="unregulated"/>
    <node id="5686" x="-29320380.0" y="9079290.0" z="0.0" type="priority"/>
    <node id="10782" x="-29323560.0" y="9080610.0" z="0.0" type="traffic_light"/>
    <node id="13030" x="-29322120.0" y="9083490.0" z="0.0" type="priority"/>
    <node id="13019" x="-29323680.0" y="9081270.0" z="0.0" type="traffic_light"/>
    <node id="11086" x="-29325390.0" y="9086520.0" z="0.0" type="priority"/>
    <node id="6188" x="-29324970.0" y="9087510.0" z="0.0" type="priority"/>
    <node id="13079" x="-29324310.0" y="9081450.0" z="0.0" type="priority"/>
    <node id="13016" x="-29321370.0" y="9081240.0" z="0.0" type="traffic_light"/>
    <node id="100359" x="-29323050.0" y="9085500.0" z="0.0" type="unregulated"/>
    <node id="13058" x="-29324310.0" y="9084660.0" z="0.0" type="priority"/>
    <node id="12261" x="-29321460.0" y="9080040.0" z="0.0" type="traffic_light"/>
    <node id="100360" x="-29322870.0" y="9087180.0" z="0.0" type="unregulated"/>
    <node id="13500" x="-29326665.27784827" y="9079903.64471628" z="0.0" type="traffic_light"/>
    <node id="5178" x="-29323980.0" y="9083370.0" z="0.0" type="priority"/>
    <node id="13033" x="-29321040.0" y="9083160.0" z="0.0" type="priority"/>
    <node id="13182" x="-29319360.0" y="9086790.0" z="0.0" type="priority"/>
    <node id="13081" x="-29324520.0" y="9080880.0" z="0.0" type="traffic_light"/>
    <node id="6333" x="-29323110.0" y="9086370.0" z="0.0" type="traffic_light"/>
    <node id="11483" x="-29326290.0" y="9083370.0" z="0.0" type="priority"/>
    <node id="131483" x="-29326290.0" y="9083370.0" z="0.0" type="unregulated"/>
    <node id="13172" x="-29322690.0" y="9084540.0" z="0.0" type="priority"/>
    <node id="5431" x="-29323890.0" y="9082650.0" z="0.0" type="traffic_light"/>
    <node id="11501" x="-29318100.0" y="9085890.0" z="0.0" type="priority"/>
    <node id="5711" x="-29321610.0" y="9081630.0" z="0.0" type="traffic_light"/>
    <node id="6354" x="-29320710.0" y="9084000.0" z="0.0" type="traffic_light"/>
    <node id="13086" x="-29324970.0" y="9081630.0" z="0.0" type="priority"/>
    <node id="6377" x="-29317140.0" y="9086640.0" z="0.0" type="priority"/>
    <node id="5684" x="-29319570.0" y="9081570.0" z="0.0" type="priority"/>
    <node id="13082" x="-29324640.0" y="9080610.0" z="0.0" type="traffic_light"/>
    <node id="5729" x="-29321460.0" y="9079110.0" z="0.0" type="priority"/>
    <node id="5768" x="-29320650.0" y="9079350.0" z="0.0" type="priority"/>
    <node id="13134" x="-29322390.0" y="9079980.0" z="0.0" type="priority"/>
    <node id="6319" x="-29321250.0" y="9088290.0" z="0.0" type="priority"/>
    <node id="10487" x="-29324520.0" y="9079950.0" z="0.0" type="priority"/>
    <node id="5205" x="-29318730.0" y="9083550.0" z="0.0" type="priority"/>
    <node id="5472" x="-29324100.0" y="9081090.0" z="0.0" type="priority"/>
    <node id="13015" x="-29321610.0" y="9080700.0" z="0.0" type="traffic_light"/>
    <node id="13126" x="-29323650.000000004" y="9090450.0" z="0.0" type="priority"/>
    <node id="13059" x="-29324580.0" y="9084750.0" z="0.0" type="priority"/>
    <node id="6351" x="-29323680.0" y="9084210.0" z="0.0" type="priority"/>
    <node id="13028" x="-29322750.000000004" y="9082290.0" z="0.0" type="priority"/>
    <node id="13095" x="-29324190.0" y="9087720.0" z="0.0" type="priority"/>
    <node id="5583" x="-29324730.0" y="9079410.0" z="0.0" type="traffic_light"/>
    <node id="13078" x="-29324220.0" y="9081720.0" z="0.0" type="priority"/>
    <node id="13106" x="-29322540.0" y="9079080.0" z="0.0" type="traffic_light"/>
    <node id="11866" x="-29325690.0" y="9079680.0" z="0.0" type="priority"/>
    <node id="10616" x="-29318820.0" y="9080760.0" z="0.0" type="priority"/>
    <node id="130616" x="-29318820.0" y="9080760.0" z="0.0" type="unregulated"/>
    <node id="13147" x="-29323290.0" y="9081780.0" z="0.0" type="priority"/>
    <node id="6359" x="-29321880.0" y="9090090.0" z="0.0" type="priority"/>
    <node id="5570" x="-29325960.000000004" y="9080910.0" z="0.0" type="traffic_light"/>
    <node id="126359" x="-29321880.0" y="9090090.0" z="0.0" type="unregulated"/>
    <node id="100376" x="-29322150.0" y="9083850.0" z="0.0" type="unregulated"/>
    <node id="13109" x="-29323650.000000004" y="9079410.0" z="0.0" type="traffic_light"/>
    <node id="6169" x="-29323860.0" y="9090060.0" z="0.0" type="priority"/>
    <node id="13198" x="-29323230.0" y="9085200.0" z="0.0" type="priority"/>
    <node id="13067" x="-29324429.999999996" y="9083130.0" z="0.0" type="priority"/>
    <node id="13148" x="-29323500.0" y="9081210.0" z="0.0" type="priority"/>
    <node id="10777" x="-29324100.0" y="9080160.0" z="0.0" type="traffic_light"/>
    <node id="5716" x="-29321160.0" y="9079950.0" z="0.0" type="traffic_light"/>
    <node id="100407" x="-29321820.0" y="9079110.0" z="0.0" type="unregulated"/>
    <node id="6334" x="-29321339.999999996" y="9087510.0" z="0.0" type="priority"/>
    <node id="5732" x="-29320740.0" y="9081060.0" z="0.0" type="traffic_light"/>
    <node id="6362" x="-29322629.999999996" y="9088950.0" z="0.0" type="traffic_light"/>
    <node id="12061" x="-29323230.0" y="9088110.0" z="0.0" type="priority"/>
    <node id="6345" x="-29322690.0" y="9083910.0" z="0.0" type="priority"/>
    <node id="13075" x="-29324220.0" y="9080790.0" z="0.0" type="priority"/>
    <node id="13167" x="-29320530.0" y="9083490.0" z="0.0" type="priority"/>
    <node id="101408" x="-29324010.0" y="9081930.0" z="0.0" type="unregulated"/>
    <node id="13103" x="-29322930.0" y="9086340.0" z="0.0" type="traffic_light"/>
    <node id="9912" x="-29314950.0" y="9090060.0" z="0.0" type="priority"/>
    <node id="5738" x="-29323230.0" y="9079380.0" z="0.0" type="priority"/>
    <node id="129912" x="-29314950.0" y="9090060.0" z="0.0" type="unregulated"/>
    <node id="13122" x="-29320860.0" y="9088890.0" z="0.0" type="priority"/>
    <node id="133122" x="-29320860.0" y="9088890.0" z="0.0" type="unregulated"/>
    <node id="13145" x="-29321850.000000004" y="9081390.0" z="0.0" type="priority"/>
    <node id="13022" x="-29322870.0" y="9081960.0" z="0.0" type="priority"/>
    <node id="13009" x="-29320950.000000004" y="9080490.0" z="0.0" type="traffic_light"/>
    <node id="5747" x="-29322420.0" y="9079380.0" z="0.0" type="priority"/>
    <node id="6374" x="-29317650.0" y="9085710.0" z="0.0" type="priority"/>
    <node id="100377" x="-29322060.0" y="9082500.0" z="0.0" type="unregulated"/>
    <node id="100375" x="-29323110.0" y="9084150.0" z="0.0" type="unregulated"/>
    <node id="13152" x="-29323410.0" y="9081990.0" z="0.0" type="priority"/>
    <node id="5772" x="-29319840.0" y="9081540.0" z="0.0" type="priority"/>
    <node id="125772" x="-29319840.0" y="9081540.0" z="0.0" type="unregulated"/>
    <node id="11713" x="-29322360.000000004" y="9089340.0" z="0.0" type="priority"/>
    <node id="13141" x="-29321670.0" y="9080070.0" z="0.0" type="priority"/>
    <node id="6145" x="-29324340.0" y="9086460.0" z="0.0" type="traffic_light"/>
    <node id="10617" x="-29320050.000000004" y="9080250.0" z="0.0" type="priority"/>
    <node id="100380" x="-29323470.0" y="9080370.0" z="0.0" type="unregulated"/>
    <node id="11642" x="-29321790.0" y="9080130.0" z="0.0" type="traffic_light"/>
    <node id="11770" x="-29324490.0" y="9080880.0" z="0.0" type="priority"/>
    <node id="11082" x="-29322690.0" y="9082980.0" z="0.0" type="priority"/>
    <node id="12064" x="-29323200.0" y="9088500.0" z="0.0" type="priority"/>
    <node id="13072" x="-29323890.0" y="9081630.0" z="0.0" type="priority"/>
    <node id="5452" x="-29324070.0" y="9079230.0" z="0.0" type="traffic_light"/>
    <node id="13037" x="-29320500.0" y="9083610.0" z="0.0" type="priority"/>
    <node id="10606" x="-29324160.000000004" y="9084960.0" z="0.0" type="priority"/>
    <node id="13160" x="-29322420.0" y="9083220.0" z="0.0" type="priority"/>
    <node id="13166" x="-29324039.999999996" y="9083190.0" z="0.0" type="priority"/>
    <node id="6332" x="-29321430.0" y="9084210.0" z="0.0" type="traffic_light"/>
    <node id="11273" x="-29322390.0" y="9087210.0" z="0.0" type="traffic_light"/>
    <node id="5106" x="-29321640.0" y="9083640.0" z="162.4000396728516" type="priority"/>
    <node id="6327" x="-29318940.0" y="9086670.0" z="0.0" type="priority"/>
    <node id="3427" x="-29320710.0" y="9078900.0" z="0.0" type="priority"/>
    <node id="11274" x="-29322510.0" y="9085830.0" z="0.0" type="priority"/>
    <node id="5210" x="-29320350.0" y="9083880.0" z="0.0" type="traffic_light"/>
    <node id="12736" x="-29325600.0" y="9082110.0" z="0.0" type="priority"/>
    <node id="13040" x="-29322270.0" y="9084090.0" z="0.0" type="priority"/>
    <node id="6231" x="-29325630.0" y="9085080.0" z="0.0" type="traffic_light"/>
    <node id="5674" x="-29319300.0" y="9082380.0" z="0.0" type="priority"/>
    <node id="5464" x="-29323890.0" y="9080700.0" z="0.0" type="traffic_light"/>
    <node id="12135" x="-29323920.0" y="9087240.0" z="0.0" type="priority"/>
    <node id="11121" x="-29323680.0" y="9090390.0" z="0.0" type="priority"/>
    <node id="5682" x="-29321100.0" y="9077100.0" z="0.0" type="priority"/>
    <node id="125682" x="-29321100.0" y="9077100.0" z="0.0" type="unregulated"/>
    <node id="5544" x="-29326380.0" y="9081090.0" z="0.0" type="traffic_light"/>
    <node id="100381" x="-29322300.0" y="9080190.0" z="0.0" type="unregulated"/>
    <node id="5551" x="-29324610.0" y="9078330.0" z="0.0" type="priority"/>
    <node id="5780" x="-29319540.000000004" y="9082440.0" z="0.0" type="priority"/>
    <node id="125551" x="-29324610.0" y="9078330.0" z="0.0" type="unregulated"/>
    <node id="125780" x="-29319540.000000004" y="9082440.0" z="0.0" type="unregulated"/>