<?xml version="1.0" encoding="UTF-8"?>

<!-- generated on 09/01/21 12:01:48 by Eclipse SUMO netedit Version 1.8.0
<configuration xmlns:xsi="http://www.w3.org/2001/XMLSchema-instance" xsi:noNamespaceSchemaLocation="http://sumo.dlr.de/xsd/netconvertConfiguration.xsd">

    <input>
        <sumo-net-file value="F:\LimitedDeployment\code\austin_net\austin.net.xml"/>
    </input>

    <output>
        <output-file value="F:\LimitedDeployment\code\austin_net\austin.net.xml"/>
    </output>

    <processing>
        <geometry.min-radius.fix.railways value="false"/>
        <geometry.max-grade.fix value="false"/>
        <offset.disable-normalization value="true"/>
        <lefthand value="false"/>
    </processing>

    <junctions>
        <no-turnarounds value="true"/>
        <junctions.corner-detail value="5"/>
        <junctions.limit-turn-speed value="5.5"/>
        <rectangular-lane-cut value="false"/>
    </junctions>

    <pedestrian>
        <walkingareas value="false"/>
    </pedestrian>

    <report>
        <aggregate-warnings value="5"/>
    </report>

</configuration>
-->

<net version="1.6" junctionCornerDetail="5" limitTurnSpeed="5.50" xmlns:xsi="http://www.w3.org/2001/XMLSchema-instance" xsi:noNamespaceSchemaLocation="http://sumo.dlr.de/xsd/net_file.xsd">

    <location netOffset="29328450.00,-9077100.00" convBoundary="0.00,0.00,22980.00,20580.00" origBoundary="-29328450.00,9077100.00,-29305470.00,9097680.00" projParameter="!"/>

    <edge id=":100345_0" function="internal">
        <lane id=":100345_0_0" index="0" speed="6.39" length="13.41" shape="5606.75,12743.56 5609.03,12747.10 5609.16,12749.59 5607.12,12751.03 5602.93,12751.42"/>
    </edge>
    <edge id=":100345_1" function="internal">
        <lane id=":100345_1_0" index="0" speed="4.07" length="4.47" shape="5603.01,12748.22 5604.41,12748.09 5605.09,12747.61 5605.04,12746.78 5604.28,12745.60"/>
    </edge>
    <edge id=":100356_0" function="internal">
        <lane id=":100356_0_0" index="0" speed="9.35" length="11.57" shape="4686.44,10289.15 4684.17,10290.47 4682.39,10292.44 4681.08,10295.06 4680.26,10298.32"/>
    </edge>
    <edge id=":100356_1" function="internal">
        <lane id=":100356_1_0" index="0" speed="26.82" length="28.96" shape="4686.44,10289.15 4680.72,10290.59 4672.28,10291.99 4663.79,10293.14 4657.88,10293.82"/>
    </edge>
    <edge id=":100356_2" function="internal">
        <lane id=":100356_2_0" index="0" speed="20.99" length="28.85" shape="4686.44,10289.15 4680.70,10289.63 4672.24,10288.79 4663.75,10287.37 4657.89,10286.12"/>
    </edge>
    <edge id=":100356_3" function="internal">
        <lane id=":100356_3_0" index="0" speed="10.67" length="19.51" shape="4686.44,10289.15 4682.93,10289.04 4678.29,10287.08 4673.52,10283.97 4669.65,10280.38"/>
    </edge>
    <edge id=":100356_4" function="internal">
        <lane id=":100356_4_0" index="0" speed="9.74" length="16.12" shape="4672.08,10278.30 4676.05,10282.46 4679.57,10285.16 4682.63,10286.40 4685.25,10286.18"/>
    </edge>
    <edge id=":100356_5" function="internal">
        <lane id=":100356_5_0" index="0" speed="14.33" length="22.27" shape="4672.08,10278.30 4676.20,10283.76 4678.93,10288.92 4680.29,10293.77 4680.26,10298.32"/>
    </edge>
    <edge id=":100356_6" function="internal">
        <lane id=":100356_6_0" index="0" speed="8.51" length="23.70" shape="4672.08,10278.30 4672.77,10282.87 4669.31,10287.79 4663.69,10291.85 4657.88,10293.82"/>
    </edge>
    <edge id=":100356_7" function="internal">
        <lane id=":100356_7_0" index="0" speed="7.03" length="18.53" shape="4672.08,10278.30 4672.08,10281.44 4668.27,10284.24 4662.82,10286.03 4657.89,10286.12"/>
    </edge>
    <edge id=":100356_8" function="internal">
        <lane id=":100356_8_0" index="0" speed="6.64" length="16.33" shape="4658.67,10283.02 4665.67,10284.43 4669.84,10284.47 4671.16,10283.12 4669.65,10280.38"/>
    </edge>
    <edge id=":100356_9" function="internal">
        <lane id=":100356_9_0" index="0" speed="15.09" length="26.92" shape="4658.67,10283.02 4664.22,10284.28 4672.04,10285.75 4679.82,10286.64 4685.25,10286.18"/>
    </edge>
    <edge id=":100356_10" function="internal">
        <lane id=":100356_10_0" index="0" speed="11.50" length="28.51" shape="4658.67,10283.02 4668.70,10286.14 4675.64,10289.74 4679.49,10293.80 4680.26,10298.32"/>
    </edge>
    <edge id=":100356_11" function="internal">
        <lane id=":100356_11_0" index="0" speed="5.65" length="12.69" shape="4658.67,10283.02 4660.53,10285.02 4660.94,10288.61 4660.02,10292.10 4657.88,10293.82"/>
    </edge>
    <edge id=":100356_12" function="internal">
        <lane id=":100356_12_0" index="0" speed="5.89" length="13.97" shape="4657.57,10290.64 4662.51,10289.86 4664.21,10288.85 4662.67,10287.60 4657.89,10286.12"/>
    </edge>
    <edge id=":100356_13" function="internal">
        <lane id=":100356_13_0" index="0" speed="7.99" length="20.72" shape="4657.57,10290.64 4665.53,10289.27 4670.20,10287.11 4671.57,10284.15 4669.65,10280.38"/>
    </edge>
    <edge id=":100356_14" function="internal">
        <lane id=":100356_14_0" index="0" speed="15.09" length="28.07" shape="4657.57,10290.64 4663.34,10289.99 4671.53,10288.92 4679.66,10287.59 4685.25,10286.18"/>
    </edge>
    <edge id=":100356_15" function="internal">
        <lane id=":100356_15_0" index="0" speed="9.65" length="25.32" shape="4657.57,10290.64 4664.58,10290.79 4672.20,10292.28 4678.18,10294.87 4680.26,10298.32"/>
    </edge>
    <edge id=":100356_16" function="internal">
        <lane id=":100356_16_0" index="0" speed="8.90" length="21.36" shape="4677.10,10297.81 4676.27,10295.30 4672.79,10293.81 4666.66,10293.31 4657.88,10293.82"/>
    </edge>
    <edge id=":100356_17" function="internal">
        <lane id=":100356_17_0" index="0" speed="10.55" length="23.85" shape="4677.10,10297.81 4676.31,10294.60 4672.84,10291.58 4666.70,10288.76 4657.89,10286.12"/>
    </edge>
    <edge id=":100356_18" function="internal">
        <lane id=":100356_18_0" index="0" speed="13.43" length="19.49" shape="4677.10,10297.81 4677.08,10293.97 4675.84,10289.78 4673.36,10285.26 4669.65,10280.38"/>
    </edge>
    <edge id=":100356_19" function="internal">
        <lane id=":100356_19_0" index="0" speed="10.45" length="14.61" shape="4677.10,10297.81 4678.21,10294.29 4680.20,10290.81 4682.67,10287.93 4685.25,10286.18"/>
    </edge>
    <edge id=":100358_0" function="internal">
        <lane id=":100358_0_0" index="0" speed="23.00" length="19.25" shape="3964.26,8442.11 3962.40,8438.08 3960.49,8433.20 3959.00,8428.22 3958.40,8423.89"/>
    </edge>
    <edge id=":100358_1" function="internal">
        <lane id=":100358_1_0" index="0" speed="6.21" length="13.53" shape="3964.26,8442.11 3964.28,8439.07 3966.29,8435.93 3969.31,8433.74 3972.34,8433.55"/>
    </edge>
    <edge id=":100358_2" function="internal">
        <lane id=":100358_2_0" index="0" speed="5.46" length="10.04" shape="3971.08,8436.49 3967.94,8435.51 3966.24,8435.89 3965.97,8437.61 3967.13,8440.68"/>
    </edge>
    <edge id=":100358_3" function="internal">
        <lane id=":100358_3_0" index="0" speed="10.78" length="18.38" shape="3971.08,8436.49 3966.79,8434.03 3962.68,8430.65 3959.61,8427.04 3958.40,8423.89"/>
    </edge>
    <edge id=":100358_4" function="internal">
        <lane id=":100358_4_0" index="0" speed="9.82" length="15.11" shape="3961.60,8423.89 3962.27,8426.39 3964.28,8428.83 3967.64,8431.22 3972.34,8433.55"/>
    </edge>
    <edge id=":100358_5" function="internal">
        <lane id=":100358_5_0" index="0" speed="15.09" length="17.79" shape="3961.60,8423.89 3962.15,8427.99 3963.52,8432.48 3965.32,8436.87 3967.13,8440.68"/>
    </edge>
    <edge id=":100359_0" function="internal">
        <lane id=":100359_0_0" index="0" speed="11.13" length="16.38" shape="5410.44,8398.60 5406.30,8400.28 5403.03,8402.63 5400.62,8405.66 5399.08,8409.37"/>
    </edge>
    <edge id=":100359_1" function="internal">
        <lane id=":100359_1_0" index="0" speed="15.09" length="19.79" shape="5410.44,8398.60 5391.27,8403.51"/>
    </edge>
    <edge id=":100359_2" function="internal">
        <lane id=":100359_2_0" index="0" speed="10.13" length="20.86" shape="5410.44,8398.60 5405.15,8399.31 5400.59,8398.11 5396.77,8395.00 5393.69,8389.99"/>
    </edge>
    <edge id=":100359_3" function="internal">
        <lane id=":100359_3_0" index="0" speed="6.73" length="14.51" shape="5410.44,8398.60 5407.28,8398.08 5404.43,8395.48 5402.63,8391.90 5402.62,8388.46"/>
    </edge>
    <edge id=":100359_4" function="internal">
        <lane id=":100359_4_0" index="0" speed="5.78" length="10.30" shape="5405.62,8389.58 5404.74,8392.95 5405.10,8395.06 5406.70,8395.92 5409.54,8395.53"/>
    </edge>
    <edge id=":100359_5" function="internal">
        <lane id=":100359_5_0" index="0" speed="26.82" length="20.84" shape="5405.62,8389.58 5404.04,8393.97 5402.19,8399.42 5400.41,8404.90 5399.08,8409.37"/>
    </edge>
    <edge id=":100359_6" function="internal">
        <lane id=":100359_6_0" index="0" speed="12.64" length="20.88" shape="5405.62,8389.58 5403.06,8394.88 5399.82,8398.96 5395.88,8401.84 5391.27,8403.51"/>
    </edge>
    <edge id=":100359_7" function="internal">
        <lane id=":100359_7_0" index="0" speed="6.34" length="13.65" shape="5405.62,8389.58 5403.39,8391.73 5399.75,8392.54 5396.05,8391.98 5393.69,8389.99"/>
    </edge>
    <edge id=":100359_8" function="internal">
        <lane id=":100359_8_0" index="0" speed="5.47" length="9.74" shape="5396.60,8388.66 5398.20,8391.33 5399.73,8392.19 5401.21,8391.23 5402.62,8388.46"/>
    </edge>
    <edge id=":100359_9" function="internal">
        <lane id=":100359_9_0" index="0" speed="8.98" length="16.21" shape="5396.60,8388.66 5399.02,8392.62 5401.98,8395.08 5405.48,8396.05 5409.54,8395.53"/>
    </edge>
    <edge id=":100359_10" function="internal">
        <lane id=":100359_10_0" index="0" speed="16.47" length="21.07" shape="5396.60,8388.66 5398.05,8393.14 5399.11,8398.91 5399.54,8404.74 5399.08,8409.37"/>
    </edge>
    <edge id=":100359_11" function="internal">
        <lane id=":100359_11_0" index="0" speed="8.18" length="17.32" shape="5396.60,8388.66 5397.41,8392.85 5396.68,8397.47 5394.58,8401.40 5391.27,8403.51"/>
    </edge>
    <edge id=":100359_12" function="internal">
        <lane id=":100359_12_0" index="0" speed="7.15" length="12.96" shape="5390.60,8400.38 5393.46,8399.16 5394.93,8397.02 5395.01,8393.96 5393.69,8389.99"/>
    </edge>
    <edge id=":100359_13" function="internal">
        <lane id=":100359_13_0" index="0" speed="11.66" length="17.67" shape="5390.60,8400.38 5394.43,8398.97 5397.71,8396.52 5400.44,8393.01 5402.62,8388.46"/>
    </edge>
    <edge id=":100359_14" function="internal">
        <lane id=":100359_14_0" index="0" speed="26.82" length="19.55" shape="5390.60,8400.38 5409.54,8395.53"/>
    </edge>
    <edge id=":100359_15" function="internal">
        <lane id=":100359_15_0" index="0" speed="6.85" length="13.84" shape="5390.60,8400.38 5393.77,8400.86 5396.76,8403.06 5398.78,8406.17 5399.08,8409.37"/>
    </edge>
    <edge id=":100359_16" function="internal">
        <lane id=":100359_16_0" index="0" speed="5.72" length="9.20" shape="5395.99,8408.52 5396.36,8405.80 5395.69,8404.06 5394.00,8403.30 5391.27,8403.51"/>
    </edge>
    <edge id=":100359_17" function="internal">
        <lane id=":100359_17_0" index="0" speed="15.09" length="18.91" shape="5395.99,8408.52 5396.48,8404.23 5396.12,8399.15 5395.11,8394.13 5393.69,8389.99"/>
    </edge>
    <edge id=":100359_18" function="internal">
        <lane id=":100359_18_0" index="0" speed="26.82" length="21.13" shape="5395.99,8408.52 5397.34,8404.01 5399.15,8398.44 5401.03,8392.89 5402.62,8388.46"/>
    </edge>
    <edge id=":100359_19" function="internal">
        <lane id=":100359_19_0" index="0" speed="12.05" length="19.30" shape="5395.99,8408.52 5397.92,8404.64 5401.24,8400.78 5405.32,8397.54 5409.54,8395.53"/>
    </edge>
    <edge id=":100360_0" function="internal">
        <lane id=":100360_0_0" index="0" speed="6.32" length="9.04" shape="5586.33,10084.34 5583.90,10083.72 5581.92,10084.07 5580.39,10085.38 5579.32,10087.65"/>
    </edge>
    <edge id=":100360_1" function="internal">
        <lane id=":100360_1_0" index="0" speed="26.82" length="24.47" shape="5586.33,10084.34 5563.51,10075.52"/>
    </edge>
    <edge id=":100360_2" function="internal">
        <lane id=":100360_2_0" index="0" speed="26.82" length="24.80" shape="5586.33,10084.34 5581.90,10081.57 5576.41,10077.05 5571.17,10072.18 5567.46,10068.39"/>
    </edge>
    <edge id=":100360_3" function="internal">
        <lane id=":100360_3_0" index="0" speed="26.20" length="23.38" shape="5569.85,10066.25 5573.37,10069.92 5578.22,10074.50 5583.30,10078.74 5587.55,10081.38"/>
    </edge>
    <edge id=":100360_4" function="internal">
        <lane id=":100360_4_0" index="0" speed="13.36" length="24.27" shape="5569.85,10066.25 5574.92,10072.60 5578.19,10078.28 5579.66,10083.30 5579.32,10087.65"/>
    </edge>
    <edge id=":100360_5" function="internal">
        <lane id=":100360_5_0" index="0" speed="5.86" length="13.08" shape="5569.85,10066.25 5570.40,10069.06 5568.93,10072.43 5566.33,10075.02 5563.51,10075.52"/>
    </edge>
    <edge id=":100360_6" function="internal">
        <lane id=":100360_6_0" index="0" speed="5.58" length="11.63" shape="5564.63,10072.53 5568.50,10073.65 5570.26,10073.34 5569.91,10071.58 5567.46,10068.39"/>
    </edge>
    <edge id=":100360_7" function="internal">
        <lane id=":100360_7_0" index="0" speed="26.82" length="24.57" shape="5564.63,10072.53 5587.55,10081.38"/>
    </edge>
    <edge id=":100360_8" function="internal">
        <lane id=":100360_8_0" index="0" speed="10.07" length="22.04" shape="5564.63,10072.53 5569.89,10075.32 5574.94,10079.40 5578.51,10083.81 5579.32,10087.65"/>
    </edge>
    <edge id=":100360_9" function="internal">
        <lane id=":100360_9_0" index="0" speed="9.21" length="18.27" shape="5576.26,10086.71 5576.13,10083.86 5573.96,10081.04 5569.75,10078.26 5563.51,10075.52"/>
    </edge>
    <edge id=":100360_10" function="internal">
        <lane id=":100360_10_0" index="0" speed="12.46" length="21.01" shape="5576.26,10086.71 5576.44,10083.19 5575.03,10078.97 5572.04,10074.03 5567.46,10068.39"/>
    </edge>
    <edge id=":100360_11" function="internal">
        <lane id=":100360_11_0" index="0" speed="7.60" length="13.58" shape="5576.26,10086.71 5578.00,10083.97 5580.92,10081.96 5584.34,10080.98 5587.55,10081.38"/>
    </edge>
    <edge id=":100361_0" function="internal">
        <lane id=":100361_0_0" index="0" speed="26.82" length="15.41" shape="7177.48,10557.38 7174.15,10559.26 7170.67,10561.00 7167.11,10562.56 7163.54,10563.89"/>
    </edge>
    <edge id=":100361_1" function="internal">
        <lane id=":100361_1_0" index="0" speed="7.45" length="13.66" shape="7177.48,10557.38 7174.34,10558.21 7170.80,10557.64 7167.63,10555.95 7165.63,10553.39"/>
    </edge>
    <edge id=":100361_2" function="internal">
        <lane id=":100361_2_0" index="0" speed="6.19" length="9.05" shape="7168.60,10552.20 7169.87,10554.40 7171.50,10555.54 7173.49,10555.62 7175.83,10554.64"/>
    </edge>
    <edge id=":100361_3" function="internal">
        <lane id=":100361_3_0" index="0" speed="7.76" length="13.81" shape="7168.60,10552.20 7169.04,10555.50 7168.17,10559.01 7166.25,10562.04 7163.54,10563.89"/>
    </edge>
    <edge id=":100361_4" function="internal">
        <lane id=":100361_4_0" index="0" speed="6.49" length="9.35" shape="7162.51,10560.86 7164.72,10559.71 7165.98,10558.08 7166.28,10555.97 7165.63,10553.39"/>
    </edge>
    <edge id=":100361_5" function="internal">
        <lane id=":100361_5_0" index="0" speed="26.82" length="14.73" shape="7162.51,10560.86 7165.98,10559.57 7169.33,10558.11 7172.60,10556.47 7175.83,10554.64"/>
    </edge>
    <edge id=":100362_0" function="internal">
        <lane id=":100362_0_0" index="0" speed="5.56" length="9.41" shape="7259.05,8320.50 7258.51,8317.65 7257.35,8316.28 7255.55,8316.39 7253.13,8318.00"/>
    </edge>
    <edge id=":100362_1" function="internal">
        <lane id=":100362_1_0" index="0" speed="26.82" length="27.64" shape="7259.05,8320.50 7257.77,8314.97 7255.06,8307.34 7251.95,8299.83 7249.45,8294.66"/>
    </edge>
    <edge id=":100362_2" function="internal">
        <lane id=":100362_2_0" index="0" speed="26.82" length="28.93" shape="7259.05,8320.50 7256.87,8291.65"/>
    </edge>
    <edge id=":100362_3" function="internal">
        <lane id=":100362_3_0" index="0" speed="6.62" length="13.88" shape="7259.05,8320.50 7260.10,8317.48 7262.90,8314.97 7266.40,8313.63 7269.53,8314.13"/>
    </edge>
    <edge id=":100362_4" function="internal">
        <lane id=":100362_4_0" index="0" speed="5.60" length="9.48" shape="7267.82,8316.83 7265.21,8315.62 7263.41,8315.80 7262.42,8317.36 7262.25,8320.30"/>
    </edge>
    <edge id=":100362_5" function="internal">
        <lane id=":100362_5_0" index="0" speed="9.54" length="15.92" shape="7267.82,8316.83 7264.02,8315.09 7260.31,8314.70 7256.68,8315.67 7253.13,8318.00"/>
    </edge>
    <edge id=":100362_6" function="internal">
        <lane id=":100362_6_0" index="0" speed="26.39" length="28.88" shape="7267.82,8316.83 7263.51,8312.85 7257.98,8306.38 7252.77,8299.58 7249.45,8294.66"/>
    </edge>
    <edge id=":100362_7" function="internal">
        <lane id=":100362_7_0" index="0" speed="15.38" length="27.96" shape="7267.82,8316.83 7264.30,8312.93 7260.92,8306.49 7258.25,8298.92 7256.87,8291.65"/>
    </edge>
    <edge id=":100362_8" function="internal">
        <lane id=":100362_8_0" index="0" speed="14.68" length="25.42" shape="7260.05,8291.39 7261.20,8299.44 7263.16,8305.91 7265.94,8310.81 7269.53,8314.13"/>
    </edge>
    <edge id=":100362_9" function="internal">
        <lane id=":100362_9_0" index="0" speed="26.82" length="29.00" shape="7260.05,8291.39 7262.25,8320.30"/>
    </edge>
    <edge id=":100362_10" function="internal">
        <lane id=":100362_10_0" index="0" speed="15.28" length="28.46" shape="7260.05,8291.39 7260.22,8300.28 7259.13,8307.69 7256.76,8313.59 7253.13,8318.00"/>
    </edge>
    <edge id=":100362_11" function="internal">
        <lane id=":100362_11_0" index="0" speed="5.79" length="12.95" shape="7260.05,8291.39 7258.78,8293.90 7255.55,8295.61 7251.92,8296.02 7249.45,8294.66"/>
    </edge>
    <edge id=":100362_12" function="internal">
        <lane id=":100362_12_0" index="0" speed="5.66" length="12.27" shape="7252.24,8293.08 7254.61,8296.67 7256.18,8297.63 7256.93,8295.95 7256.87,8291.65"/>
    </edge>
    <edge id=":100362_13" function="internal">
        <lane id=":100362_13_0" index="0" speed="25.68" length="27.33" shape="7252.24,8293.08 7255.39,8297.83 7260.22,8304.23 7265.39,8310.32 7269.53,8314.13"/>
    </edge>
    <edge id=":100362_14" function="internal">
        <lane id=":100362_14_0" index="0" speed="26.82" length="29.08" shape="7252.24,8293.08 7254.80,8298.47 7258.05,8306.45 7260.90,8314.55 7262.25,8320.30"/>
    </edge>
    <edge id=":100362_15" function="internal">
        <lane id=":100362_15_0" index="0" speed="11.52" length="26.05" shape="7252.24,8293.08 7254.73,8299.49 7255.89,8306.82 7255.45,8313.51 7253.13,8318.00"/>
    </edge>
    <edge id=":100362_16" function="internal">
        <lane id=":100362_16_0" index="0" speed="10.76" length="22.63" shape="7251.05,8315.57 7253.54,8312.04 7254.10,8307.38 7252.74,8301.59 7249.45,8294.66"/>
    </edge>
    <edge id=":100362_17" function="internal">
        <lane id=":100362_17_0" index="0" speed="14.46" length="25.44" shape="7251.05,8315.57 7254.14,8311.73 7256.15,8306.46 7257.05,8299.77 7256.87,8291.65"/>
    </edge>
    <edge id=":100362_18" function="internal">
        <lane id=":100362_18_0" index="0" speed="10.65" length="20.02" shape="7251.05,8315.57 7255.50,8312.65 7260.07,8311.43 7264.75,8311.93 7269.53,8314.13"/>
    </edge>
    <edge id=":100362_19" function="internal">
        <lane id=":100362_19_0" index="0" speed="6.57" length="13.78" shape="7251.05,8315.57 7254.06,8314.63 7257.71,8315.43 7260.82,8317.48 7262.25,8320.30"/>
    </edge>
    <edge id=":100363_0" function="internal">
        <lane id=":100363_0_0" index="0" speed="5.73" length="13.07" shape="8956.79,8722.99 8953.43,8723.40 8950.83,8721.63 8949.77,8718.66 8951.01,8715.51"/>
    </edge>
    <edge id=":100363_1" function="internal">
        <lane id=":100363_1_0" index="0" speed="5.03" length="9.61" shape="8953.37,8717.67 8951.21,8720.34 8950.81,8721.64 8952.17,8721.58 8955.30,8720.16"/>
    </edge>
    <edge id=":100372_0" function="internal">
        <lane id=":100372_0_0" index="0" speed="6.01" length="9.08" shape="2789.49,4568.31 2788.79,4565.82 2787.49,4564.37 2785.58,4563.97 2783.07,4564.62"/>
    </edge>
    <edge id=":100372_1" function="internal">
        <lane id=":100372_1_0" index="0" speed="21.99" length="15.02" shape="2789.49,4568.31 2788.81,4564.62 2787.74,4561.02 2786.29,4557.55 2784.46,4554.28"/>
    </edge>
    <edge id=":100372_2" function="internal">
        <lane id=":100372_2_0" index="0" speed="22.97" length="16.39" shape="2787.16,4552.56 2789.06,4556.04 2790.67,4559.95 2791.90,4564.00 2792.67,4567.89"/>
    </edge>
    <edge id=":100372_3" function="internal">
        <lane id=":100372_3_0" index="0" speed="7.49" length="13.94" shape="2787.16,4552.56 2788.03,4555.72 2787.44,4559.32 2785.68,4562.55 2783.07,4564.62"/>
    </edge>
    <edge id=":100372_4" function="internal">
        <lane id=":100372_4_0" index="0" speed="6.25" length="9.34" shape="2781.84,4561.67 2784.18,4560.30 2785.39,4558.61 2785.49,4556.60 2784.46,4554.28"/>
    </edge>
    <edge id=":100372_5" function="internal">
        <lane id=":100372_5_0" index="0" speed="7.25" length="13.76" shape="2781.84,4561.67 2785.08,4561.38 2788.49,4562.63 2791.28,4564.95 2792.67,4567.89"/>
    </edge>
    <edge id=":100373_0" function="internal">
        <lane id=":100373_0_0" index="0" speed="10.79" length="20.70" shape="3456.96,5080.39 3453.39,5075.37 3451.60,5070.55 3451.61,5065.93 3453.42,5061.51"/>
    </edge>
    <edge id=":100373_1" function="internal">
        <lane id=":100373_1_0" index="0" speed="6.25" length="13.57" shape="3456.96,5080.39 3456.19,5077.44 3457.30,5073.87 3459.63,5070.96 3462.51,5069.95"/>
    </edge>
    <edge id=":100373_2" function="internal">
        <lane id=":100373_2_0" index="0" speed="5.46" length="9.94" shape="3462.11,5073.13 3458.89,5073.07 3457.36,5073.91 3457.52,5075.64 3459.37,5078.28"/>
    </edge>
    <edge id=":100373_3" function="internal">
        <lane id=":100373_3_0" index="0" speed="7.45" length="16.18" shape="3462.11,5073.13 3458.37,5071.63 3455.00,5068.63 3453.02,5064.97 3453.42,5061.51"/>
    </edge>
    <edge id=":100373_4" function="internal">
        <lane id=":100373_4_0" index="0" speed="6.43" length="11.73" shape="3456.13,5063.21 3455.24,5065.70 3456.00,5067.65 3458.43,5069.07 3462.51,5069.95"/>
    </edge>
    <edge id=":100373_5" function="internal">
        <lane id=":100373_5_0" index="0" speed="9.71" length="16.59" shape="3456.13,5063.21 3454.78,5066.64 3454.87,5070.29 3456.40,5074.17 3459.37,5078.28"/>
    </edge>
    <edge id=":100374_0" function="internal">
        <lane id=":100374_0_0" index="0" speed="14.11" length="16.91" shape="4896.24,5937.13 4893.65,5940.12 4891.73,5944.05 4890.40,5948.33 4889.56,5952.35"/>
    </edge>
    <edge id=":100374_1" function="internal">
        <lane id=":100374_1_0" index="0" speed="26.82" length="18.93" shape="4896.24,5937.13 4881.35,5948.83"/>
    </edge>
    <edge id=":100374_2" function="internal">
        <lane id=":100374_2_0" index="0" speed="8.51" length="13.99" shape="4896.24,5937.13 4893.32,5938.41 4889.71,5938.59 4886.09,5937.75 4883.09,5936.00"/>
    </edge>
    <edge id=":100374_3" function="internal">
        <lane id=":100374_3_0" index="0" speed="7.28" length="10.00" shape="4885.21,5933.60 4887.60,5935.28 4889.90,5936.01 4892.12,5935.79 4894.26,5934.62"/>
    </edge>
    <edge id=":100374_4" function="internal">
        <lane id=":100374_4_0" index="0" speed="12.33" length="20.07" shape="4885.21,5933.60 4887.93,5936.95 4889.56,5941.18 4890.10,5946.32 4889.56,5952.35"/>
    </edge>
    <edge id=":100374_5" function="internal">
        <lane id=":100374_5_0" index="0" speed="8.22" length="17.09" shape="4885.21,5933.60 4886.72,5936.89 4886.19,5941.22 4884.20,5945.54 4881.35,5948.83"/>
    </edge>
    <edge id=":100374_6" function="internal">
        <lane id=":100374_6_0" index="0" speed="7.16" length="12.68" shape="4879.38,5946.31 4882.66,5943.27 4884.37,5940.54 4884.51,5938.11 4883.09,5936.00"/>
    </edge>
    <edge id=":100374_7" function="internal">
        <lane id=":100374_7_0" index="0" speed="26.82" length="18.93" shape="4879.38,5946.31 4894.26,5934.62"/>
    </edge>
    <edge id=":100374_8" function="internal">
        <lane id=":100374_8_0" index="0" speed="6.27" length="13.59" shape="4879.38,5946.31 4882.37,5945.68 4885.88,5946.96 4888.68,5949.42 4889.56,5952.35"/>
    </edge>
    <edge id=":100374_9" function="internal">
        <lane id=":100374_9_0" index="0" speed="5.46" length="9.89" shape="4886.41,5951.82 4886.59,5948.63 4885.81,5947.07 4884.07,5947.13 4881.35,5948.83"/>
    </edge>
    <edge id=":100374_10" function="internal">
        <lane id=":100374_10_0" index="0" speed="11.33" length="16.84" shape="4886.41,5951.82 4886.90,5946.63 4886.51,5942.26 4885.24,5938.71 4883.09,5936.00"/>
    </edge>
    <edge id=":100374_11" function="internal">
        <lane id=":100374_11_0" index="0" speed="15.01" length="19.18" shape="4886.41,5951.82 4887.43,5947.49 4889.17,5942.53 4891.49,5937.92 4894.26,5934.62"/>
    </edge>
    <edge id=":100375_0" function="internal">
        <lane id=":100375_0_0" index="0" speed="9.82" length="14.74" shape="5340.28,7056.26 5338.93,7054.07 5336.36,7052.31 5332.60,7050.98 5327.62,7050.06"/>
    </edge>
    <edge id=":100375_1" function="internal">
        <lane id=":100375_1_0" index="0" speed="25.91" length="17.45" shape="5340.28,7056.26 5338.63,7052.51 5336.20,7048.62 5333.44,7044.92 5330.80,7041.72"/>
    </edge>
    <edge id=":100375_2" function="internal">
        <lane id=":100375_2_0" index="0" speed="10.93" length="14.32" shape="5340.28,7056.26 5339.98,7053.24 5340.52,7049.54 5341.75,7045.80 5343.51,7042.65"/>
    </edge>
    <edge id=":100375_3" function="internal">
        <lane id=":100375_3_0" index="0" speed="9.84" length="11.50" shape="5346.07,7044.57 5344.29,7047.39 5343.24,7050.12 5342.92,7052.76 5343.33,7055.31"/>
    </edge>
    <edge id=":100375_4" function="internal">
        <lane id=":100375_4_0" index="0" speed="12.03" length="20.16" shape="5346.07,7044.57 5342.91,7047.59 5338.78,7049.51 5333.69,7050.34 5327.62,7050.06"/>
    </edge>
    <edge id=":100375_5" function="internal">
        <lane id=":100375_5_0" index="0" speed="8.10" length="17.01" shape="5346.07,7044.57 5342.90,7046.36 5338.58,7046.12 5334.18,7044.39 5330.80,7041.72"/>
    </edge>
    <edge id=":100375_6" function="internal">
        <lane id=":100375_6_0" index="0" speed="7.04" length="12.54" shape="5333.22,7039.64 5336.38,7042.75 5339.14,7044.29 5341.52,7044.26 5343.51,7042.65"/>
    </edge>
    <edge id=":100375_7" function="internal">
        <lane id=":100375_7_0" index="0" speed="26.82" length="18.73" shape="5333.22,7039.64 5335.97,7043.02 5338.94,7047.11 5341.58,7051.38 5343.33,7055.31"/>
    </edge>
    <edge id=":100375_8" function="internal">
        <lane id=":100375_8_0" index="0" speed="6.27" length="13.58" shape="5333.22,7039.64 5333.98,7042.60 5332.85,7046.16 5330.51,7049.06 5327.62,7050.06"/>
    </edge>
    <edge id=":100375_9" function="internal">
        <lane id=":100375_9_0" index="0" speed="5.46" length="9.90" shape="5328.02,7046.89 5331.22,7046.95 5332.75,7046.10 5332.61,7044.36 5330.80,7041.72"/>
    </edge>
    <edge id=":100375_10" function="internal">
        <lane id=":100375_10_0" index="0" speed="11.02" length="16.80" shape="5328.02,7046.89 5333.21,7047.15 5337.52,7046.53 5340.96,7045.03 5343.51,7042.65"/>
    </edge>
    <edge id=":100375_11" function="internal">
        <lane id=":100375_11_0" index="0" speed="10.79" length="17.96" shape="5328.02,7046.89 5332.70,7048.03 5337.45,7050.10 5341.31,7052.67 5343.33,7055.31"/>
    </edge>
    <edge id=":100376_0" function="internal">
        <lane id=":100376_0_0" index="0" speed="23.63" length="17.19" shape="6308.87,6754.64 6304.92,6753.56 6300.48,6752.78 6295.99,6752.39 6291.91,6752.51"/>
    </edge>
    <edge id=":100376_1" function="internal">
        <lane id=":100376_1_0" index="0" speed="13.37" length="18.47" shape="6308.87,6754.64 6304.25,6752.66 6300.44,6750.05 6297.44,6746.83 6295.25,6742.99"/>
    </edge>
    <edge id=":100376_2" function="internal">
        <lane id=":100376_2_0" index="0" speed="6.69" length="13.82" shape="6308.87,6754.64 6306.45,6752.57 6305.14,6749.08 6305.16,6745.36 6306.72,6742.58"/>
    </edge>
    <edge id=":100376_3" function="internal">
        <lane id=":100376_3_0" index="0" speed="5.62" length="9.30" shape="6308.72,6745.08 6306.76,6747.11 6306.30,6748.88 6307.34,6750.38 6309.88,6751.61"/>
    </edge>
    <edge id=":100376_4" function="internal">
        <lane id=":100376_4_0" index="0" speed="18.48" length="18.53" shape="6308.72,6745.08 6305.14,6747.48 6300.71,6749.76 6296.09,6751.55 6291.91,6752.51"/>
    </edge>
    <edge id=":100376_5" function="internal">
        <lane id=":100376_5_0" index="0" speed="7.53" length="15.02" shape="6308.72,6745.08 6305.37,6746.53 6301.33,6746.66 6297.61,6745.47 6295.25,6742.99"/>
    </edge>
    <edge id=":100376_6" function="internal">
        <lane id=":100376_6_0" index="0" speed="6.39" length="10.44" shape="6298.20,6741.73 6299.65,6743.92 6301.55,6744.80 6303.91,6744.35 6306.72,6742.58"/>
    </edge>
    <edge id=":100376_7" function="internal">