<edges>
    <edge id="114520" from="10490" to="5747" numLanes="1" speed="6.7056"  length="112.65408000000001"/>
    <edge id="14996" from="5749" to="10782" numLanes="4" speed="17.8816089408"  length="112.65408000000001"/>
    <edge id="5315" from="5772" to="5709" numLanes="3" speed="20.1168"  length="144.78"/>
    <edge id="5191" from="5750" to="5745" numLanes="1" speed="6.7056"  length="128.74752"/>
    <edge id="118234" from="5188" to="13040" numLanes="4" speed="17.8816089408"  length="96.56064"/>
    <edge id="106255" from="13171" to="5197" numLanes="2" speed="17.8816089408"  length="144.84096"/>
    <edge id="218487" from="100374" to="13158" numLanes="1" speed="26.8224"  length="128.74752"/>
    <edge id="18468" from="13149" to="13018" numLanes="2" speed="15.6463910592"  length="64.37376"/>
    <edge id="318489" from="13159" to="100375" numLanes="1" speed="26.8224"  length="193.12128"/>
    <edge id="16470" from="11966" to="11086" numLanes="2" speed="15.6463910592"  length="32.18688"/>
    <edge id="425133" from="10601" to="5570" numLanes="2" speed="13.4112"  length="146.304"/>
    <edge id="205295" from="100384" to="5777" numLanes="1" speed="26.8224"  length="128.74752"/>
    <edge id="18225" from="13031" to="5106" numLanes="2" speed="6.7056"  length="128.74752"/>
    <edge id="206242" from="100356" to="6183" numLanes="1" speed="3.3528"  length="160.9344"/>
    <edge id="6211" from="6346" to="13041" numLanes="4" speed="17.8816089408"  length="128.62560000000002"/>
    <edge id="118367" from="13194" to="13103" numLanes="2" speed="13.4112"  length="144.84096"/>
    <edge id="14462" from="10459" to="10461" numLanes="2" speed="13.4112"  length="96.56064"/>
    <edge id="118161" from="5770" to="13009" numLanes="1" speed="17.8816089408"  length="112.65408000000001"/>
    <edge id="214710" from="101413" to="5106" numLanes="1" speed="3.3528"  length="160.9344"/>
    <edge id="105248" from="13113" to="5763" numLanes="3" speed="13.4112"  length="112.47120000000001"/>
    <edge id="118348" from="13087" to="5588" numLanes="1" speed="15.6463910592"  length="112.65408000000001"/>
    <edge id="5178" from="5743" to="5685" numLanes="2" speed="15.6463910592"  length="128.74752"/>
    <edge id="18557" from="13194" to="13102" numLanes="1" speed="7.8232089408"  length="144.84096"/>
    <edge id="218513" from="100386" to="13171" numLanes="1" speed="26.8224"  length="386.24256"/>
    <edge id="118488" from="5220" to="13159" numLanes="1" speed="13.4112"  length="64.37376"/>
    <edge id="106173" from="6312" to="6311" numLanes="1" speed="6.7056"  length="418.1856"/>
    <edge id="4896" from="5586" to="11484" numLanes="2" speed="15.6463910592"  length="112.65408000000001"/>
    <edge id="18181" from="5722" to="13017" numLanes="1" speed="6.7056"  length="112.65408000000001"/>
    <edge id="118312" from="5456" to="13078" numLanes="1" speed="7.8232089408"  length="112.65408000000001"/>
    <edge id="6260" from="6356" to="6328" numLanes="2" speed="15.6463910592"  length="193.12128"/>
    <edge id="106331" from="5141" to="6393" numLanes="2" speed="29.057510591999996"  length="1898.904"/>
    <edge id="18278" from="13049" to="13045" numLanes="1" speed="13.4112"  length="112.65408000000001"/>
    <edge id="218507" from="100376" to="13168" numLanes="1" speed="26.8224"  length="193.12128"/>
    <edge id="18365" from="11044" to="13101" numLanes="1" speed="15.6463910592"  length="434.52288"/>
    <edge id="14517" from="10491" to="10488" numLanes="2" speed="13.4112"  length="128.62560000000002"/>
    <edge id="114507" from="5587" to="10486" numLanes="1" speed="7.8232089408"  length="112.65408000000001"/>
    <edge id="118330" from="13088" to="13087" numLanes="1" speed="13.4112"  length="96.3168"/>
    <edge id="18301" from="13071" to="13072" numLanes="1" speed="6.7056"  length="112.65408000000001"/>
    <edge id="18226" from="5106" to="5214" numLanes="2" speed="6.7056"  length="241.4016"/>
    <edge id="316799" from="6334" to="100361" numLanes="1" speed="26.8224"  length="48.28032"/>
    <edge id="18604" from="12261" to="5722" numLanes="1" speed="13.4112"  length="265.7856"/>
    <edge id="317733" from="5745" to="100405" numLanes="1" speed="26.8224"  length="160.9344"/>
    <edge id="5125" from="5657" to="5659" numLanes="2" speed="15.6463910592"  length="96.56064"/>
    <edge id="118190" from="5713" to="13020" numLanes="3" speed="15.6463910592"  length="112.65408000000001"/>
    <edge id="118352" from="6188" to="13095" numLanes="2" speed="13.4112"  length="257.49504"/>
    <edge id="315481" from="6169" to="100344" numLanes="1" speed="26.8224"  length="241.4016"/>
    <edge id="325020" from="6399" to="126399" numLanes="1" speed="26.8224"  length="112.65408000000001"/>
    <edge id="425020" from="126399" to="6399" numLanes="1" speed="26.8224"  length="112.65408000000001"/>
    <edge id="105183" from="10611" to="5745" numLanes="1" speed="6.7056"  length="112.65408000000001"/>
    <edge id="18254" from="13051" to="13057" numLanes="1" speed="13.4112"  length="16.09344"/>
    <edge id="18191" from="5712" to="13145" numLanes="3" speed="15.6463910592"  length="48.28032"/>
    <edge id="106266" from="6344" to="6357" numLanes="2" speed="15.6463910592"  length="16.09344"/>
    <edge id="18366" from="13103" to="6333" numLanes="2" speed="15.6463910592"  length="48.28032"/>
    <edge id="16247" from="11743" to="6341" numLanes="2" speed="15.6463910592"  length="128.74752"/>
    <edge id="16582" from="12078" to="5197" numLanes="2" speed="17.8816089408"  length="112.65408000000001"/>
    <edge id="106330" from="5786" to="5689" numLanes="1" speed="20.1168"  length="370.0272"/>
    <edge id="18564" from="13198" to="13196" numLanes="2" speed="13.4112"  length="177.02784"/>
    <edge id="106263" from="11637" to="6307" numLanes="2" speed="13.4112"  length="193.12128"/>
    <edge id="117736" from="5574" to="12737" numLanes="2" speed="17.8816089408"  length="144.84096"/>
    <edge id="116581" from="6370" to="12077" numLanes="2" speed="15.6463910592"  length="209.0928"/>
    <edge id="18276" from="13063" to="13054" numLanes="1" speed="13.4112"  length="112.65408000000001"/>
    <edge id="217610" from="100362" to="6342" numLanes="1" speed="26.8224"  length="450.61632000000003"/>
    <edge id="205154" from="100377" to="5733" numLanes="1" speed="26.8224"  length="273.58848"/>
    <edge id="18239" from="5152" to="13042" numLanes="1" speed="6.7056"  length="112.65408000000001"/>
    <edge id="104590" from="5212" to="5431" numLanes="2" speed="15.6463910592"  length="112.65408000000001"/>
    <edge id="5172" from="5745" to="10488" numLanes="2" speed="15.6463910592"  length="112.65408000000001"/>
    <edge id="104910" from="5465" to="5589" numLanes="1" speed="15.6463910592"  length="16.09344"/>
    <edge id="104861" from="5571" to="5570" numLanes="2" speed="13.4112"  length="160.9344"/>
    <edge id="105287" from="12098" to="5709" numLanes="2" speed="13.4112"  length="96.56064"/>
    <edge id="105282" from="5773" to="5772" numLanes="1" speed="13.4112"  length="225.24720000000002"/>
    <edge id="14513" from="10490" to="13162" numLanes="2" speed="13.4112"  length="48.28032"/>
    <edge id="6232" from="6337" to="6349" numLanes="2" speed="17.8816089408"  length="112.65408000000001"/>
    <edge id="216795" from="100362" to="6338" numLanes="1" speed="26.8224"  length="128.74752"/>
    <edge id="18332" from="5581" to="13089" numLanes="1" speed="13.4112"  length="112.65408000000001"/>
    <edge id="118518" from="6339" to="13174" numLanes="2" speed="17.8816089408"  length="80.4672"/>
    <edge id="318447" from="13138" to="100380" numLanes="1" speed="26.8224"  length="144.84096"/>
    <edge id="114461" from="5731" to="10461" numLanes="4" speed="13.4112"  length="112.65408000000001"/>
    <edge id="6312" from="6378" to="11501" numLanes="2" speed="17.8816089408"  length="96.56064"/>
    <edge id="118448" from="5749" to="13139" numLanes="4" speed="13.4112"  length="48.1584"/>
    <edge id="105218" from="5755" to="5753" numLanes="2" speed="13.4112"  length="112.65408000000001"/>
    <edge id="114494" from="5767" to="10479" numLanes="1" speed="13.4112"  length="273.58848"/>
    <edge id="15803" from="11299" to="5198" numLanes="2" speed="17.8816089408"  length="112.65408000000001"/>
    <edge id="18241" from="13043" to="5178" numLanes="1" speed="6.7056"  length="112.65408000000001"/>
    <edge id="106354" from="13119" to="6399" numLanes="2" speed="17.8816089408"  length="48.1584"/>
    <edge id="118209" from="13029" to="11082" numLanes="1" speed="13.4112"  length="112.47120000000001"/>
    <edge id="325013" from="5780" to="125780" numLanes="1" speed="26.8224"  length="112.65408000000001"/>
    <edge id="425013" from="125780" to="5780" numLanes="1" speed="26.8224"  length="112.65408000000001"/>
    <edge id="16564" from="12060" to="6167" numLanes="2" speed="17.8816089408"  length="96.56064"/>
    <edge id="18273" from="13062" to="13153" numLanes="2" speed="15.6463910592"  length="48.28032"/>
    <edge id="114512" from="13107" to="10489" numLanes="1" speed="7.8232089408"  length="112.47120000000001"/>
    <edge id="118340" from="5135" to="13091" numLanes="2" speed="15.6463910592"  length="144.84096"/>
    <edge id="18267" from="13053" to="13048" numLanes="1" speed="13.4112"  length="96.56064"/>
    <edge id="18168" from="13011" to="5724" numLanes="3" speed="4.4704089408000005"  length="112.47120000000001"/>
    <edge id="18186" from="11381" to="13149" numLanes="2" speed="15.6463910592"  length="64.37376"/>
    <edge id="114711" from="13169" to="10609" numLanes="2" speed="17.8816089408"  length="80.4672"/>
    <edge id="4895" from="5573" to="12737" numLanes="2" speed="17.8816089408"  length="144.84096"/>
    <edge id="106362" from="6398" to="6370" numLanes="3" speed="15.6463910592"  length="48.28032"/>
    <edge id="325004" from="5551" to="125551" numLanes="1" speed="26.8224"  length="112.65408000000001"/>
    <edge id="425004" from="125551" to="5551" numLanes="1" speed="26.8224"  length="112.65408000000001"/>
    <edge id="18213" from="13031" to="13170" numLanes="1" speed="13.4112"  length="64.37376"/>
    <edge id="14507" from="10486" to="5587" numLanes="1" speed="7.8232089408"  length="112.65408000000001"/>
    <edge id="18189" from="12735" to="13148" numLanes="2" speed="15.6463910592"  length="48.28032"/>
    <edge id="117623" from="10617" to="12672" numLanes="2" speed="15.6463910592"  length="80.4672"/>
    <edge id="18131" from="12997" to="5200" numLanes="4" speed="29.057510591999996"  length="225.24720000000002"/>
    <edge id="118239" from="13042" to="5152" numLanes="1" speed="6.7056"  length="112.65408000000001"/>
    <edge id="6266" from="6357" to="6344" numLanes="2" speed="15.6463910592"  length="16.09344"/>
    <edge id="106348" from="6376" to="6387" numLanes="1" speed="13.4112"  length="48.1584"/>
    <edge id="106237" from="13177" to="6183" numLanes="1" speed="7.8232089408"  length="80.4672"/>
    <edge id="318441" from="13135" to="100381" numLanes="1" speed="26.8224"  length="144.84096"/>
    <edge id="118238" from="5152" to="11082" numLanes="1" speed="6.7056"  length="112.47120000000001"/>
    <edge id="218533" from="100361" to="13181" numLanes="1" speed="26.8224"  length="450.61632000000003"/>
    <edge id="304872" from="5577" to="100403" numLanes="1" speed="26.8224"  length="289.68192"/>
    <edge id="6264" from="6328" to="6357" numLanes="2" speed="15.6463910592"  length="209.21472"/>
    <edge id="105239" from="5759" to="5758" numLanes="3" speed="13.4112"  length="112.65408000000001"/>
    <edge id="105141" from="5721" to="5720" numLanes="3" speed="29.057510591999996"  length="337.71840000000003"/>
    <edge id="5229" from="5152" to="13024" numLanes="4" speed="17.8816089408"  length="112.65408000000001"/>
    <edge id="6357" from="6326" to="6327" numLanes="3" speed="15.6463910592"  length="80.4672"/>
    <edge id="6317" from="6384" to="6379" numLanes="2" speed="29.057510591999996"  length="241.4016"/>
    <edge id="4290" from="5197" to="11299" numLanes="2" speed="17.8816089408"  length="96.56064"/>
    <edge id="5140" from="5718" to="11381" numLanes="3" speed="13.4112"  length="112.65408000000001"/>
    <edge id="18387" from="13114" to="5716" numLanes="4" speed="13.4112"  length="112.65408000000001"/>
    <edge id="118245" from="13046" to="11084" numLanes="1" speed="6.7056"  length="128.74752"/>
    <edge id="118271" from="13042" to="13061" numLanes="1" speed="13.4112"  length="112.65408000000001"/>
    <edge id="106199" from="11274" to="6335" numLanes="2" speed="17.8816089408"  length="177.02784"/>
    <edge id="6237" from="6183" to="13177" numLanes="1" speed="15.6463910592"  length="80.4672"/>
    <edge id="17620" from="12670" to="12735" numLanes="4" speed="17.8816089408"  length="112.65408000000001"/>
    <edge id="4608" from="5454" to="10777" numLanes="4" speed="17.8816089408"  length="112.47120000000001"/>
    <edge id="317610" from="6342" to="100362" numLanes="1" speed="26.8224"  length="450.61632000000003"/>
    <edge id="6241" from="6333" to="13175" numLanes="2" speed="15.6463910592"  length="64.37376"/>
    <edge id="18294" from="13069" to="13166" numLanes="1" speed="15.6463910592"  length="16.09344"/>
    <edge id="425152" from="11791" to="13118" numLanes="1" speed="13.4112"  length="60.96"/>
    <edge id="18237" from="13040" to="13041" numLanes="2" speed="6.7056"  length="112.65408000000001"/>
    <edge id="318433" from="13131" to="100405" numLanes="1" speed="26.8224"  length="32.18688"/>
    <edge id="306242" from="6183" to="100356" numLanes="1" speed="26.8224"  length="160.9344"/>
    <edge id="214714" from="101413" to="10610" numLanes="1" speed="26.8224"  length="193.12128"/>
    <edge id="18327" from="10602" to="13086" numLanes="1" speed="13.4112"  length="112.65408000000001"/>
    <edge id="14493" from="5767" to="5762" numLanes="2" speed="13.4112"  length="80.4672"/>
    <edge id="118366" from="6333" to="13103" numLanes="2" speed="15.6463910592"  length="48.28032"/>
    <edge id="18216" from="13034" to="5107" numLanes="1" speed="13.4112"  length="112.65408000000001"/>
    <edge id="18243" from="13044" to="13045" numLanes="2" speed="6.7056"  length="112.65408000000001"/>
    <edge id="318517" from="13173" to="100362" numLanes="1" speed="26.8224"  length="563.2704"/>
    <edge id="116547" from="6357" to="12043" numLanes="1" speed="13.4112"  length="241.4016"/>
    <edge id="18323" from="5586" to="13154" numLanes="1" speed="13.4112"  length="64.37376"/>
    <edge id="18220" from="13030" to="13035" numLanes="1" speed="6.7056"  length="112.65408000000001"/>
    <edge id="425125" from="13129" to="133129" numLanes="10" speed="22.3519910592"  length="0.3048"/>
    <edge id="325125" from="133129" to="13129" numLanes="10" speed="22.3519910592"  length="0.3048"/>
    <edge id="6194" from="6332" to="13039" numLanes="1" speed="6.7056"  length="112.65408000000001"/>
    <edge id="105924" from="13156" to="6191" numLanes="3" speed="17.8816089408"  length="48.28032"/>
    <edge id="16274" from="11770" to="13081" numLanes="4" speed="17.8816089408"  length="16.09344"/>
    <edge id="5262" from="3427" to="5658" numLanes="1" speed="20.1168"  length="144.84096"/>
    <edge id="206210" from="100375" to="13048" numLanes="1" speed="26.8224"  length="48.28032"/>
    <edge id="116582" from="5197" to="12078" numLanes="2" speed="17.8816089408"  length="112.65408000000001"/>
    <edge id="18209" from="11082" to="13029" numLanes="1" speed="6.7056"  length="112.47120000000001"/>
    <edge id="13425" from="9911" to="6395" numLanes="1" speed="20.1168"  length="144.78"/>
    <edge id="114508" from="13070" to="5755" numLanes="1" speed="13.4112"  length="96.56064"/>
    <edge id="118266" from="13053" to="13060" numLanes="1" speed="6.7056"  length="112.65408000000001"/>
    <edge id="104892" from="5585" to="5584" numLanes="1" speed="7.8232089408"  length="112.65408000000001"/>
    <edge id="604865" from="11786" to="5574" numLanes="3" speed="13.4112"  length="402.336"/>
    <edge id="105217" from="13022" to="5754" numLanes="2" speed="13.4112"  length="48.28032"/>
    <edge id="5149" from="5728" to="13018" numLanes="4" speed="15.6463910592"  length="112.65408000000001"/>
    <edge id="206193" from="100386" to="6322" numLanes="1" speed="26.8224"  length="257.49504"/>
    <edge id="105908" from="12137" to="6174" numLanes="1" speed="6.7056"  length="160.9344"/>
    <edge id="5194" from="5726" to="5741" numLanes="2" speed="15.6463910592"  length="112.65408000000001"/>
    <edge id="306225" from="6174" to="100359" numLanes="1" speed="26.8224"  length="144.84096"/>
    <edge id="118565" from="6348" to="13198" numLanes="1" speed="13.4112"  length="96.56064"/>
    <edge id="105204" from="13134" to="5731" numLanes="4" speed="13.4112"  length="64.31280000000001"/>
    <edge id="115586" from="11081" to="11082" numLanes="4" speed="17.8816089408"  length="112.65408000000001"/>
    <edge id="318485" from="13157" to="100374" numLanes="1" speed="26.8224"  length="128.74752"/>
    <edge id="118536" from="12060" to="13183" numLanes="2" speed="17.8816089408"  length="80.4672"/>
    <edge id="18201" from="11081" to="13024" numLanes="1" speed="13.4112"  length="112.65408000000001"/>
    <edge id="18280" from="5220" to="13158" numLanes="1" speed="13.4112"  length="64.37376"/>
    <edge id="6222" from="5220" to="6191" numLanes="3" speed="17.8816089408"  length="112.65408000000001"/>
    <edge id="15510" from="11044" to="13176" numLanes="1" speed="13.4112"  length="32.18688"/>
    <edge id="118210" from="5760" to="13029" numLanes="1" speed="13.4112"  length="112.65408000000001"/>
    <edge id="105327" from="5780" to="5674" numLanes="3" speed="17.8816089408"  length="80.4672"/>
    <edge id="18530" from="13180" to="12061" numLanes="1" speed="15.6463910592"  length="80.4672"/>
    <edge id="318465" from="13147" to="100378" numLanes="1" speed="26.8224"  length="193.12128"/>
    <edge id="18480" from="13155" to="5586" numLanes="1" speed="13.4112"  length="80.4672"/>
    <edge id="318491" from="13160" to="100376" numLanes="1" speed="26.8224"  length="241.4016"/>
    <edge id="106312" from="11501" to="6378" numLanes="2" speed="17.8816089408"  length="96.56064"/>
    <edge id="18218" from="13034" to="13030" numLanes="1" speed="6.7056"  length="128.74752"/>
    <edge id="18195" from="12282" to="13146" numLanes="3" speed="15.6463910592"  length="48.28032"/>
    <edge id="105316" from="5720" to="5787" numLanes="3" speed="29.057510591999996"  length="160.9344"/>
    <edge id="118382" from="13111" to="13110" numLanes="1" speed="13.4112"  length="112.47120000000001"/>
    <edge id="18363" from="13100" to="13194" numLanes="1" speed="7.8232089408"  length="160.9344"/>
    <edge id="218477" from="101408" to="13153" numLanes="1" speed="26.8224"  length="257.49504"/>
    <edge id="5203" from="5717" to="13136" numLanes="4" speed="15.6463910592"  length="48.28032"/>
    <edge id="314703" from="13051" to="101410" numLanes="1" speed="26.8224"  length="32.18688"/>
    <edge id="18204" from="13026" to="11531" numLanes="1" speed="6.7056"  length="112.65408000000001"/>
    <edge id="5134" from="5709" to="13116" numLanes="3" speed="20.1168"  length="96.3168"/>
    <edge id="118206" from="5757" to="11080" numLanes="2" speed="15.6463910592"  length="112.65408000000001"/>
    <edge id="318483" from="13156" to="101409" numLanes="1" speed="26.8224"  length="225.30816000000002"/>
    <edge id="105261" from="5656" to="5680" numLanes="2" speed="20.1168"  length="64.37376"/>
    <edge id="218433" from="100405" to="13131" numLanes="1" speed="26.8224"  length="32.18688"/>
    <edge id="6261" from="6328" to="6342" numLanes="1" speed="6.7056"  length="273.4056"/>
    <edge id="15776" from="11272" to="11713" numLanes="2" speed="17.8816089408"  length="64.37376"/>
    <edge id="4910" from="5589" to="5465" numLanes="1" speed="15.6463910592"  length="16.09344"/>
    <edge id="604869" from="5544" to="11536" numLanes="5" speed="13.4112"  length="128.62560000000002"/>
    <edge id="6258" from="6334" to="6340" numLanes="1" speed="13.4112"  length="241.4016"/>
    <edge id="6213" from="6339" to="12266" numLanes="1" speed="6.7056"  length="193.12128"/>
    <edge id="105302" from="5789" to="5784" numLanes="3" speed="15.6463910592"  length="128.74752"/>
    <edge id="6248" from="5210" to="6354" numLanes="2" speed="17.8816089408"  length="128.74752"/>
    <edge id="14460" from="10460" to="11384" numLanes="2" speed="13.4112"  length="112.65408000000001"/>
    <edge id="104868" from="5577" to="5544" numLanes="2" speed="17.8816089408"  length="305.77536000000003"/>
    <edge id="18221" from="13036" to="5151" numLanes="4" speed="17.8816089408"  length="112.65408000000001"/>
    <edge id="318467" from="13148" to="100378" numLanes="1" speed="26.8224"  length="128.74752"/>
    <edge id="114663" from="5680" to="10584" numLanes="1" speed="13.4112"  length="144.84096"/>
    <edge id="105142" from="13013" to="5722" numLanes="4" speed="15.6463910592"  length="112.65408000000001"/>
    <edge id="5323" from="5200" to="5783" numLanes="4" speed="29.057510591999996"  length="241.4016"/>
    <edge id="305921" from="6188" to="100356" numLanes="1" speed="26.8224"  length="386.24256"/>
    <edge id="118344" from="13079" to="13073" numLanes="1" speed="15.6463910592"  length="112.65408000000001"/>
    <edge id="18287" from="13065" to="13099" numLanes="3" speed="17.8816089408"  length="413.3088"/>
    <edge id="118263" from="13059" to="13058" numLanes="1" speed="13.4112"  length="96.56064"/>
    <edge id="14459" from="10460" to="5744" numLanes="2" speed="15.6463910592"  length="96.56064"/>
    <edge id="318493" from="13161" to="100377" numLanes="1" speed="26.8224"  length="225.30816000000002"/>
    <edge id="318539" from="13184" to="100345" numLanes="1" speed="26.8224"  length="386.24256"/>
    <edge id="114722" from="5691" to="10616" numLanes="1" speed="13.4112"  length="321.8688"/>
    <edge id="18176" from="13013" to="13015" numLanes="2" speed="13.4112"  length="112.47120000000001"/>
    <edge id="116673" from="6387" to="12169" numLanes="2" speed="20.1168"  length="96.56064"/>
    <edge id="18260" from="13057" to="13052" numLanes="1" speed="13.4112"  length="96.56064"/>
    <edge id="118346" from="13093" to="13079" numLanes="1" speed="15.6463910592"  length="112.65408000000001"/>
    <edge id="6334" from="6386" to="5205" numLanes="2" speed="17.8816089408"  length="225.24720000000002"/>
    <edge id="114704" from="6147" to="10606" numLanes="1" speed="17.8816089408"  length="112.47120000000001"/>
    <edge id="17453" from="12566" to="13094" numLanes="2" speed="20.1168"  length="64.31280000000001"/>
    <edge id="425102" from="133192" to="5778" numLanes="10" speed="22.3519910592"  length="0.6096"/>
    <edge id="118520" from="6144" to="13175" numLanes="2" speed="15.6463910592"  length="32.18688"/>
    <edge id="104247" from="11483" to="5135" numLanes="2" speed="15.6463910592"  length="305.77536000000003"/>
    <edge id="118434" from="13109" to="13132" numLanes="1" speed="13.4112"  length="64.37376"/>
    <edge id="106230" from="13040" to="6349" numLanes="4" speed="17.8816089408"  length="128.74752"/>
    <edge id="6353" from="6398" to="6378" numLanes="3" speed="15.6463910592"  length="160.9344"/>
    <edge id="5299" from="5788" to="5789" numLanes="2" speed="13.4112"  length="112.65408000000001"/>
    <edge id="204866" from="100403" to="5571" numLanes="1" speed="26.8224"  length="144.84096"/>
    <edge id="6009" from="6236" to="6231" numLanes="1" speed="17.8816089408"  length="225.24720000000002"/>
    <edge id="118272" from="13025" to="13042" numLanes="1" speed="13.4112"  length="112.65408000000001"/>
    <edge id="18383" from="13111" to="5582" numLanes="1" speed="13.4112"  length="112.47120000000001"/>
    <edge id="425105" from="5778" to="133192" numLanes="10" speed="22.3519910592"  length="0.6096"/>
    <edge id="105205" from="5739" to="5752" numLanes="3" speed="15.6463910592"  length="112.65408000000001"/>
    <edge id="206356" from="100363" to="6312" numLanes="1" speed="26.8224"  length="160.9344"/>
    <edge id="5290" from="5733" to="5782" numLanes="4" speed="15.6463910592"  length="241.4016"/>
    <edge id="5180" from="5738" to="13108" numLanes="3" speed="13.4112"  length="32.004000000000005"/>
    <edge id="18464" from="13147" to="5756" numLanes="3" speed="15.6463910592"  length="64.31280000000001"/>
    <edge id="118420" from="13124" to="13125" numLanes="2" speed="17.8816089408"  length="32.18688"/>
    <edge id="325003" from="5545" to="125545" numLanes="1" speed="26.8224"  length="112.65408000000001"/>
    <edge id="425003" from="125545" to="5545" numLanes="1" speed="26.8224"  length="112.65408000000001"/>
    <edge id="205308" from="100383" to="5788" numLanes="1" speed="26.8224"  length="96.56064"/>
    <edge id="218473" from="100849" to="13151" numLanes="1" speed="26.8224"  length="144.84096"/>
    <edge id="18328" from="13086" to="13087" numLanes="1" speed="13.4112"  length="112.65408000000001"/>
    <edge id="5301" from="5782" to="5711" numLanes="4" speed="15.6463910592"  length="128.74752"/>
    <edge id="6173" from="6311" to="6312" numLanes="1" speed="6.7056"  length="418.1856"/>
    <edge id="18185" from="13018" to="5726" numLanes="4" speed="15.6463910592"  length="112.65408000000001"/>
    <edge id="18227" from="5214" to="10610" numLanes="2" speed="13.4112"  length="112.65408000000001"/>
    <edge id="16141" from="11637" to="11504" numLanes="2" speed="13.4112"  length="32.18688"/>
    <edge id="214705" from="101410" to="13058" numLanes="1" speed="26.8224"  length="80.4672"/>
    <edge id="116005" from="11509" to="11501" numLanes="2" speed="17.8816089408"  length="32.18688"/>
    <edge id="18194" from="13021" to="5753" numLanes="4" speed="17.8816089408"  length="112.65408000000001"/>
    <edge id="118311" from="13077" to="13076" numLanes="1" speed="6.7056"  length="112.65408000000001"/>
    <edge id="14693" from="5456" to="10602" numLanes="1" speed="7.8232089408"  length="112.65408000000001"/>
    <edge id="118335" from="13071" to="5756" numLanes="1" speed="15.6463910592"  length="96.56064"/>
    <edge id="18369" from="13105" to="13181" numLanes="2" speed="17.8816089408"  length="144.84096"/>
    <edge id="18348" from="5588" to="13087" numLanes="1" speed="15.6463910592"  length="112.65408000000001"/>
    <edge id="218499" from="100383" to="13164" numLanes="1" speed="26.8224"  length="64.37376"/>
    <edge id="213459" from="100363" to="6315" numLanes="1" speed="26.8224"  length="450.61632000000003"/>
    <edge id="118316" from="13080" to="13079" numLanes="1" speed="6.7056"  length="96.56064"/>
    <edge id="318473" from="13151" to="100849" numLanes="1" speed="26.8224"  length="144.84096"/>
    <edge id="18603" from="5730" to="12261" numLanes="1" speed="13.4112"  length="300.359064"/>
    <edge id="325002" from="5469" to="125469" numLanes="1" speed="26.8224"  length="112.65408000000001"/>
    <edge id="425002" from="125469" to="5469" numLanes="1" speed="26.8224"  length="112.65408000000001"/>
    <edge id="18460" from="13145" to="13020" numLanes="3" speed="15.6463910592"  length="48.28032"/>
    <edge id="218537" from="100356" to="13183" numLanes="1" speed="26.8224"  length="675.92448"/>
    <edge id="118458" from="5718" to="13144" numLanes="3" speed="13.4112"  length="48.1584"/>
    <edge id="18388" from="13113" to="13114" numLanes="1" speed="6.7056"  length="112.65408000000001"/>
    <edge id="105275" from="13140" to="5770" numLanes="4" speed="15.6463910592"  length="64.37376"/>
    <edge id="106224" from="6146" to="6348" numLanes="2" speed="7.8232089408"  length="144.84096"/>
    <edge id="318471" from="13150" to="100380" numLanes="1" speed="26.8224"  length="160.9344"/>
    <edge id="318477" from="13153" to="101408" numLanes="1" speed="26.8224"  length="257.49504"/>
    <edge id="18310" from="5431" to="13076" numLanes="1" speed="6.7056"  length="128.74752"/>
    <edge id="106247" from="6332" to="6338" numLanes="1" speed="6.7056"  length="321.8688"/>
    <edge id="105294" from="5787" to="5785" numLanes="1" speed="20.1168"  length="273.4056"/>
    <edge id="118430" from="12670" to="13130" numLanes="4" speed="15.6463910592"  length="48.28032"/>
    <edge id="318487" from="13158" to="100374" numLanes="1" speed="26.8224"  length="128.74752"/>
    <edge id="14995" from="10782" to="5464" numLanes="4" speed="13.4112"  length="112.65408000000001"/>
    <edge id="105902" from="13184" to="6169" numLanes="2" speed="17.8816089408"  length="96.56064"/>
    <edge id="13427" from="5144" to="12138" numLanes="3" speed="20.1168"  length="96.56064"/>
    <edge id="118214" from="6337" to="13032" numLanes="1" speed="6.7056"  length="112.65408000000001"/>
    <edge id="118300" from="13078" to="13072" numLanes="1" speed="7.8232089408"  length="112.65408000000001"/>
    <edge id="105253" from="5761" to="5676" numLanes="2" speed="15.6463910592"  length="80.4672"/>
    <edge id="5317" from="5684" to="5772" numLanes="2" speed="13.4112"  length="80.4672"/>
    <edge id="4887" from="5583" to="5579" numLanes="2" speed="15.6463910592"  length="193.12128"/>
    <edge id="18279" from="13045" to="13159" numLanes="1" speed="13.4112"  length="32.18688"/>
    <edge id="18568" from="13199" to="5471" numLanes="1" speed="13.4112"  length="112.47120000000001"/>
    <edge id="106205" from="11206" to="6340" numLanes="2" speed="15.6463910592"  length="128.74752"/>
    <edge id="15590" from="11086" to="6230" numLanes="2" speed="15.6463910592"  length="144.84096"/>
    <edge id="6284" from="6362" to="6304" numLanes="2" speed="17.8816089408"  length="144.84096"/>
    <edge id="18203" from="13025" to="13026" numLanes="1" speed="6.7056"  length="112.65408000000001"/>
    <edge id="106188" from="13182" to="6327" numLanes="3" speed="15.6463910592"  length="144.84096"/>
    <edge id="106212" from="13172" to="6346" numLanes="2" speed="17.8816089408"  length="48.28032"/>