<routes>    <route id="63259" edges="325124 16601 105321 106330 105088 113432 113434 113433 113435 106303 6362 6353 6355 6357 6188 18534 15711 106260 116008 116141 106263 325015"/>
    <route id="162772" edges="325124 16601 105321 106330 105088 113432 113434 106347 106346 6348 114227 6321 306193"/>
    <route id="148555" edges="325124 16601 105321 114745 105293 105326 105331 116672 104294 6338 6168 116582 106183 306193"/>
    <route id="58218" edges="325124 16601 5317 5282 5296 5304 5301 5138 5233 5240 5217 18197 5218 14508 18297 18309 18339 18341 18340 118357 104297 106010 114707 314708"/>
    <route id="150584" edges="325124 16601 5317 5282 105285 118554 5312 5311 5145 18492 118216 18218 18220 18222 18242 18243 118278 118277 18258 18259 118284 18283 14704 6012 6009 6008 314708"/>
    <route id="53101" edges="325124 16601 5317 5282 105285 118554 105286 305325"/>
    <route id="143682" edges="325124 16601 105321 114745 105293 105326 5327 118556 105286 305325"/>
    <route id="170650" edges="325124 16601 5317 5282 105285 118554 5312 5311 5145 18492 5244 118210 118209 18238 18239 18240 18241 4301 18294 318503"/>
    <route id="58199" edges="325124 16601 5317 5282 105285 118554 5312 5311 5145 18492 5244 5246 18490 4299 6218 18269 6222 6223 4301 18294 318503"/>
    <route id="154494" edges="325124 16601 5317 5282 5296 5304 5301 5138 5233 5240 5217 18199 118208 18206 5230 18273 18476 118484 118282 18204 116036 118502 318503"/>
    <route id="144605" edges="325124 16601 105321 114745 105293 105326 5327 118556 5312 5311 5145 18492 118216 18218 18220 18222 18242 18243 18244 15588 6223 4301 18294 318503"/>
    <route id="52468" edges="325124 16601 105321 106330 105088 113432 113434 113433 113435 106303 6362 6353 6355 6357 6188 18534 15711 106260 106267 6179 6296 6273 6284 6279 6283 5900 16514 18536 16564 6062 325027"/>
    <route id="157445" edges="325124 16601 105321 114745 105293 105326 5327 118556 105286 115803 104290 6255 18512 6248 6253 18229 314709"/>
    <route id="58239" edges="325124 16601 5317 5282 105285 118554 5312 114713 118504 118228 18230 18229 314709"/>
    <route id="142561" edges="325124 16601 105321 114745 105293 105326 5327 118556 5312 114713 118504 118228 18230 18229 314709"/>
    <route id="52463" edges="325124 16601 5317 5282 105285 118554 5312 5311 5145 18492 5244 5246 18490 4299 6218 18269 6222 5924 6011 18287 325028"/>
    <route id="176407" edges="325124 16601 5317 5282 105285 118554 5312 5311 5145 18492 118216 18218 18220 18222 18242 18243 18244 18245 18288 18287 325028"/>
    <route id="152550" edges="325124 16601 5317 5282 105285 118554 5312 5311 5145 18492 118216 18218 18220 18222 18242 18243 18244 15588 5924 6011 18287 325028"/>
    <route id="142533" edges="325124 16601 105321 114745 105293 105326 5327 118556 5312 5311 5145 18492 118216 18218 18220 18222 18242 18243 18244 15588 5924 6011 18287 325028"/>
    <route id="12426" edges="325124 16601 5317 5282 5296 5304 5301 5138 5233 5240 5217 18197 5218 14508 18297 18309 18339 18325 18338 16653 4895 17736 4901 4868 118602 4876 325003"/>
    <route id="147269" edges="325124 16601 5317 5282 5296 5304 5301 5138 5233 5240 5217 18197 5218 14508 18299 18301 18300 18312 14693 14694 17735 4895 17736 4901 4868 118602 4876 325003"/>
    <route id="145688" edges="325124 16601 105321 114745 105293 17572 17571 5289 5313 5158 5251 1356 5262 5064 5073 5200 5197 14459 5170 5178 5177 5179 4607 4888 4887 4870 16370 18600 4879 4876 325003"/>
    <route id="11799" edges="325124 16601 5317 5282 5296 5304 5301 5138 5233 5239 18193 16877 5149 18185 5194 5193 5186 5183 114987 114984 104883 18383 4885 4887 304884"/>
    <route id="150021" edges="325124 16601 105321 114745 105293 17572 17571 5289 5313 5158 5251 1356 5262 5064 5073 5200 5197 14459 5170 5178 5177 5179 4607 4888 4887 304884"/>
    <route id="11777" edges="325124 16601 5317 5282 5296 5304 5301 5138 5233 5240 5217 18197 5218 14508 18297 18309 18339 18325 18338 16653 4895 17736 4901 104903 4861 304866"/>
    <route id="158682" edges="325124 16601 5317 5282 5296 5304 5301 5138 5233 5240 5217 18197 5218 14508 18297 18309 14507 4899 4908 18347 18328 18330 18329 425133 4861 304866"/>
    <route id="171752" edges="325124 16601 5317 5282 5296 5304 5301 5138 5233 5240 5217 18197 5218 14508 18297 18309 14507 4899 14693 18327 18328 18330 18329 425133 4861 304866"/>
    <route id="148054" edges="325124 16601 5317 5282 5296 5304 5301 5138 5233 5240 5217 18197 5218 14508 18299 18301 18300 18314 18316 104906 304911"/>
    <route id="152010" edges="325124 16601 5317 5282 5296 5304 5301 5138 5233 5240 5217 18199 118208 18206 5230 18298 18299 18301 18300 18314 18316 104906 304911"/>
    <route id="12457" edges="325124 16601 5317 5282 5296 5304 5301 5138 5233 5240 5217 18197 5218 14508 18297 18309 18339 18325 18338 16653 4895 17736 4901 4868 4878 325005"/>
    <route id="148056" edges="325124 16601 5317 5282 5296 5304 5301 5138 5233 5240 5217 18197 5218 14508 18299 18301 18300 18312 14693 14694 17735 4895 17736 4901 4868 4878 325005"/>
    <route id="175023" edges="325124 16601 5317 5282 5296 5304 5301 5138 5233 5240 5217 18197 5218 14508 18297 18309 14507 4899 14693 14694 17735 4895 17736 4901 4868 4878 325005"/>
    <route id="191080" edges="325124 16601 5317 5282 5296 5304 5301 5138 5233 5240 5217 18197 5218 14508 18297 18311 18337 4899 14693 14694 17735 4895 17736 4901 4868 4878 325005"/>
    <route id="151635" edges="325124 16601 5317 5282 5296 5304 5301 5138 5233 5240 5217 18199 118208 18206 5230 18298 18299 18301 18300 18312 14693 14694 17735 4895 17736 4901 4868 4878 325005"/>
    <route id="165454" edges="325124 16601 5317 5315 5287 16602 5305 5299 5303 5138 5233 5240 5217 18197 5218 14508 18297 18309 14507 4899 14693 14694 17735 4895 17736 4901 4868 4878 325005"/>
    <route id="149337" edges="325124 16601 5317 5315 5134 18394 18165 18170 18178 18191 18460 18192 18193 18195 18462 18194 5218 14508 18299 18301 18300 18312 14693 14694 17735 4895 17736 4901 4868 4878 325005"/>
    <route id="52485" edges="325124 16601 105321 106330 105088 113432 113434 113433 113435 106303 6362 6353 6355 6357 6188 18534 15711 106260 106267 6179 6296 6273 116217 115776 118418 118420 18422 18421 15625 315481"/>
    <route id="53196" edges="325124 16601 5317 5315 5134 18394 5153 5266 18161 5267 5272 5274 5250 15487 305155"/>
    <route id="53179" edges="325124 16601 5317 5282 5296 5304 5301 5136 5241 5148 18163 5214 5203 18442 5174 14455 114519 305164"/>
    <route id="142542" edges="325124 16601 5317 5315 5134 18394 18165 118171 118182 118181 118604 118603 115489 115486 117426 14455 114519 305164"/>
    <route id="144595" edges="325124 16601 105321 114745 105293 17572 17571 5289 5313 5158 5251 1356 5262 5064 5073 5200 5197 14460 15888 114520 114519 305164"/>
    <route id="11790" edges="325124 16601 5317 5282 5296 5304 5301 5138 5233 5239 18193 16877 5149 18185 5194 5193 5186 317733"/>
    <route id="141918" edges="325124 16601 5317 5315 5134 18394 18165 118171 118182 118181 118604 118603 115489 115486 117426 114457 114456 5191 317733"/>
    <route id="163442" edges="325124 16601 5317 5315 5134 18394 5153 5266 18164 18180 18175 18163 5214 5202 5212 18444 5166 5190 5191 317733"/>
    <route id="167028" edges="325124 16601 5317 5315 5134 18394 18165 118171 118182 18180 18175 18163 5214 5202 5212 18444 5166 5190 5191 317733"/>
    <route id="170219" edges="325124 16601 5317 5282 5298 5307 18165 118171 118182 18180 18175 18163 5214 5202 5212 18444 5166 5190 5191 317733"/>
    <route id="176059" edges="325124 16601 5317 5315 5134 18394 18165 118171 118182 18180 18175 18183 18456 18184 15885 5210 5166 5190 5191 317733"/>
    <route id="187880" edges="325124 16601 5317 5315 5134 18394 5153 5266 18164 18180 18175 18183 18456 18184 15885 5210 5166 5190 5191 317733"/>
    <route id="145686" edges="325124 16601 105321 114745 105293 17572 17571 5289 5313 5158 5251 1356 5262 5064 5073 105150 115487 115488 115486 117426 114457 114456 5191 317733"/>
    <route id="52488" edges="325124 16601 105321 106330 105088 113432 113434 113433 113435 106303 6362 6353 6355 6357 6188 18534 15711 106260 106267 6179 6296 6273 6284 6279 6283 313452"/>
    <route id="70891" edges="325124 16601 105321 106330 105088 113432 113434 113433 113436 113440 425129"/>
    <route id="73186" edges="325124 16601 105321 106330 105088 113432 104251 106331 425128"/>
    <route id="52491" edges="325124 16601 5317 5282 5296 5304 5301 5138 5233 5240 5217 18197 5218 14508 18297 18309 18339 18341 18340 118357 104297 106010 114707 106008 105991 118361 106016 305921"/>
    <route id="159187" edges="325124 16601 105321 106330 105088 113432 113434 113433 113435 106303 6362 6353 6355 6357 6188 18534 15711 6264 6266 6265 6205 15710 16247 6244 18363 18557 18364 18365 106016 305921"/>
    <route id="70745" edges="325124 16601 105321 114745 105293 17572 17571 5289 5313 5158 5251 1356 5262 5064 5129 5124 425127"/>
    <route id="52532" edges="325124 16601 105321 106330 105088 113432 113434 113433 113435 106303 6362 6353 6355 6357 6188 18534 15711 6264 6266 6265 106258 6196 6236 318529"/>
    <route id="52501" edges="325124 16601 5317 5282 105285 118554 5312 5311 5145 18492 5244 18211 18220 104284 118234 106230 6214 106233 118518 318519"/>
    <route id="150549" edges="325124 16601 5317 5282 105285 118554 5312 5311 5145 18492 118216 18218 18220 104284 118234 106230 6214 106233 118518 318519"/>
    <route id="146555" edges="325124 16601 105321 114745 105293 105326 5327 118556 5312 114713 118504 118228 18230 18232 18233 18214 6232 6214 106233 6213 16796 18565 106228 115589 305922"/>
    <route id="160964" edges="325124 16601 5317 5282 105285 118554 5312 5311 5145 18492 118216 18218 18220 18222 18242 18243 118278 18249 118257 106216 6227 106224 106228 115589 305922"/>
    <route id="162765" edges="325124 16601 105321 114745 105293 105326 5327 118556 5312 5311 5145 18492 118216 18218 18220 104284 118234 106230 6214 106233 6213 16796 18565 106228 115589 305922"/>
    <route id="145367" edges="325124 16601 105321 114745 105293 105326 5327 118556 5312 5311 5145 18492 118216 18218 18220 18222 18242 18270 18271 18240 18281 18204 16035 4914 18323 18478 18325 18326 14694 17735 4895 17736 4865 325024"/>
    <route id="10398" edges="325124 16601 5317 5282 5296 5304 5301 5138 5233 5240 5217 18197 5218 14508 18297 18309 18339 18325 18338 16653 4895 17736 4865 325024"/>
    <route id="158297" edges="325124 16601 5317 5282 5296 5304 5301 5138 5233 5240 5217 18197 5218 14508 18297 18309 14507 4899 14693 14694 17735 4895 17736 4865 325024"/>
    <route id="191231" edges="325124 16601 5317 5282 5296 5304 5301 5138 5233 5240 5217 18197 5218 14508 18297 18311 18337 4899 14693 14694 17735 4895 17736 4865 325024"/>
    <route id="161463" edges="325124 16601 5317 5315 5287 16602 5305 5299 5303 5138 5233 5240 5217 18197 5218 14508 18297 18309 14507 4899 14693 14694 17735 4895 17736 4865 325024"/>
    <route id="148925" edges="325124 16601 5317 5315 5134 18394 18165 18170 18178 18191 18460 18192 18193 18195 18462 18194 5218 14508 18299 18301 18300 18312 14693 14694 17735 4895 17736 4865 325024"/>
    <route id="176196" edges="325124 16601 5317 5282 105285 118554 5312 114713 118504 118228 18230 18232 18233 18214 6232 6214 106233 118518 106234 115778 106199 118516 318517"/>
    <route id="144589" edges="325124 16601 105321 106330 105088 113432 113434 113433 113435 106303 6362 6353 6355 6357 6188 18534 15711 6264 6266 6265 6205 15710 16247 6244 16214 318517"/>
    <route id="162767" edges="325124 16601 105321 114745 105293 105326 5327 118556 5312 5311 5145 18492 118216 18218 18220 104284 118234 106230 6214 106233 118518 106234 115778 106199 118516 318517"/>
    <route id="149505" edges="325124 16601 105321 106330 105088 113432 113434 113433 113436 113440 613440 6317 13439 6361 6353 6355 6357 6188 18534 15711 6264 6266 6265 6205 15710 16247 6244 16214 318517"/>
    <route id="52519" edges="325124 16601 105321 106330 105088 113432 113434 113433 113435 106303 6362 6353 6355 6357 6188 18534 15711 6264 6266 6265 106258 6196 118532 318533"/>
    <route id="153950" edges="325124 16601 5317 5282 5296 5304 5301 5138 5233 5240 5217 18197 5218 14508 18299 18301 18300 18312 14693 14694 304900"/>
    <route id="164034" edges="325124 16601 5317 5315 5287 16602 5305 5299 5303 5138 5233 5240 5217 18197 5218 14508 18297 18309 14507 4899 14693 14694 304900"/>
    <route id="171513" edges="325124 16601 5317 5282 105285 118554 5312 114713 118504 118228 18230 18232 18233 18235 18237 18236 306231"/>
    <route id="52601" edges="325124 16601 5317 5282 105285 118554 5312 5311 5145 18492 5244 18211 18220 104284 118234 18237 18236 306231"/>
    <route id="149759" edges="325124 16601 5317 5282 105285 118554 5312 5311 5145 18492 118216 18218 18220 104284 118234 18237 18236 306231"/>
    <route id="52543" edges="325124 16601 5317 5282 105285 118554 5312 5311 5145 18492 5244 18211 18220 18222 18242 118268 306210"/>
    <route id="150553" edges="325124 16601 5317 5282 105285 118554 5312 5311 5145 18492 118216 18218 18220 18222 18242 118268 306210"/>
    <route id="146557" edges="325124 16601 105321 114745 105293 105326 5327 118556 5312 5311 5145 18492 118216 18218 18220 18222 18242 118268 306210"/>
    <route id="157427" edges="325124 16601 105321 114745 105293 105326 5327 118556 5312 5311 5145 18492 118216 18218 18220 18222 18242 18270 18271 18240 18241 304277"/>
    <route id="52537" edges="325124 16601 5317 5282 5296 5304 5301 5138 5233 5240 5217 18197 5218 14508 18297 18309 18339 18325 304913"/>
    <route id="162769" edges="325124 16601 5317 5315 5287 16602 5305 5299 5303 5138 5233 5240 5217 18197 5218 14508 18297 18309 14507 118324 304913"/>
    <route id="52838" edges="325124 16601 5317 5282 5296 5304 5301 5138 5233 5239 18193 16877 5149 18185 5194 5187 14995 5189 318471"/>
    <route id="147505" edges="325124 16601 5317 5282 5296 5304 5301 5136 18191 18460 18192 18193 16877 5149 18185 5194 5187 14995 5189 318471"/>
    <route id="143680" edges="325124 16601 5317 5315 5134 18394 18165 118171 118182 18180 18175 18183 18456 18184 15885 5210 5165 18446 5187 14995 5189 318471"/>
    <route id="167406" edges="325124 16601 5317 5315 5134 18394 18165 118171 118182 18180 18175 18163 5214 5202 5212 18444 5165 18446 5187 14995 5189 318471"/>
    <route id="188019" edges="325124 16601 5317 5315 5134 18394 5153 5266 18164 18180 18175 18183 18456 18184 15885 5210 5165 18446 5187 14995 5189 318471"/>
    <route id="145791" edges="325124 16601 105321 114745 105293 17572 17571 5289 5313 5159 5281 5249 17624 18162 18164 18180 18175 18163 5214 5202 5212 18444 5165 18446 5187 14995 5189 318471"/>
    <route id="43363" edges="325124 16601 5317 5282 5296 5304 5301 5138 5233 5240 5217 18197 5218 14508 18297 18309 18339 18341 18340 4247 325022"/>
    <route id="162718" edges="325124 16601 5317 5315 5287 16602 5305 5299 5303 5138 5233 5240 5217 18197 5218 14508 18297 18309 18339 18341 18340 4247 325022"/>
    <route id="145023" edges="325124 16601 105321 114745 105293 105326 5327 118556 5312 5311 5310 5290 5301 5136 18191 318461"/>
    <route id="52554" edges="325124 16601 5317 5282 5296 5304 5301 5136 18191 318461"/>
    <route id="142538" edges="325124 16601 5317 5315 5134 18394 18165 18170 18178 18191 318461"/>
    <route id="141599" edges="325124 16601 5317 5315 5134 18394 18165 118171 118182 18180 18175 18183 18456 18184 18186 318469"/>
    <route id="156680" edges="325124 16601 5317 5282 5298 5307 5153 5266 18164 18180 18175 18183 18456 18184 18186 318469"/>
    <route id="158190" edges="325124 16601 5317 5315 5134 18394 5153 5266 18164 18180 18175 18183 18456 18184 18186 318469"/>
    <route id="170011" edges="325124 16601 5317 5282 5298 5307 18165 118171 118182 18180 18175 18183 18456 18184 18186 318469"/>
    <route id="52574" edges="325124 16601 5317 5282 5296 5304 5301 5136 5241 5148 18183 18456 18184 18186 318469"/>
    <route id="161009" edges="325124 16601 5317 5282 105285 118554 5312 5311 5145 18492 118216 18218 18220 18222 18242 18243 118278 18249 18251 118285 118284 18283 14704 6012 6009 105991 5993 325014"/>
    <route id="141327" edges="325124 16601 105321 114745 105293 105326 5327 118556 5312 5311 5145 18492 5244 118210 118209 18238 305222"/>
    <route id="158011" edges="325124 16601 5317 5282 105285 118554 5312 5311 5145 18492 118216 18218 18220 18222 18221 4258 305222"/>
    <route id="143222" edges="325124 16601 105321 114745 105293 105326 5327 118556 5312 5311 5145 18492 118216 18218 118211 118210 118209 18238 305222"/>
    <route id="156460" edges="325124 16601 105321 114745 105293 105326 5327 118556 5312 5311 5145 18492 118216 18218 18220 18222 18221 4258 305222"/>
    <route id="52565" edges="325124 16601 5317 5282 105285 118554 5312 5311 5145 18492 5244 118210 118209 18238 305222"/>
    <route id="53078" edges="325124 16601 5317 5282 105285 305295"/>
    <route id="145226" edges="325124 16601 105321 114745 105293 105326 5327 118556 18554 305295"/>
    <route id="58196" edges="325124 16601 5317 5282 5296 5304 5301 5138 5233 5239 18193 16877 5149 18187 18189 18466 18427 18304 318497"/>
    <route id="154496" edges="325124 16601 5317 5282 5296 5304 5301 5138 5233 5240 5217 18197 5218 14508 18299 18301 18302 18304 318497"/>
    <route id="144607" edges="325124 16601 5317 5315 5287 16602 5305 5299 5303 5138 5233 5240 5217 18197 5218 14508 18299 18301 18302 18304 318497"/>
    <route id="149530" edges="325124 16601 5317 5315 5134 18394 18165 18170 18178 18191 18460 18192 18193 16877 5149 18187 18189 18466 18427 18304 318497"/>
    <route id="151482" edges="325124 16601 5317 5282 5296 5304 5301 5138 5233 5240 5217 18199 118208 18206 5230 18298 18299 18301 18302 18304 318497"/>
    <route id="168126" edges="325124 16601 5317 5315 5134 18394 18165 118171 118182 18180 18175 18183 18456 18184 18186 18468 18187 18189 18466 18427 18304 318497"/>
    <route id="145809" edges="325124 16601 105321 114745 105293 17572 17571 5289 5313 5159 5281 5249 17624 18162 18164 18180 18175 18183 18456 18184 18186 18468 18187 18189 18466 18427 18304 318497"/>
    <route id="52827" edges="325124 16601 5317 5282 5298 5305 305308"/>
    <route id="143224" edges="325124 16601 5317 5315 5287 16602 5305 305308"/>
    <route id="145534" edges="325124 16601 105321 114745 105293 17572 17571 5289 5313 5159 5281 5249 17624 18162 18164 118181 118604 16765 318453"/>
    <route id="52820" edges="325124 16601 5317 5315 5134 18394 5153 5266 18161 5267 5139 16765 318453"/>
    <route id="140247" edges="325124 16601 5317 5315 5134 18394 18165 118171 118182 118181 118604 16765 318453"/>
    <route id="155568" edges="325124 16601 5317 5282 5298 5307 18165 118171 118182 118181 118604 16765 318453"/>
    <route id="169080" edges="325124 16601 5317 5282 5298 5307 5153 5266 18161 5267 5139 16765 318453"/>
    <route id="9494" edges="325124 16601 105321 114745 105293 17572 17571 5289 5313 5158 5251 1356 5262 5064 5073 5200 5197 14459 5170 5178 5084 325002"/>
    <route id="52845" edges="325124 16601 5317 5282 5296 5304 5301 5136 5241 5148 18163 5214 5202 5212 18444 5166 105171 118438 318439"/>
    <route id="141601" edges="325124 16601 5317 5315 5134 18394 18165 118171 118182 118181 118604 118603 115489 115486 117426 114457 105167 118438 318439"/>
    <route id="140042" edges="325124 16601 5317 5315 5134 18394 18165 118171 118182 18180 18175 18183 18456 18184 15885 5210 5166 105171 118438 318439"/>
    <route id="155412" edges="325124 16601 5317 5282 5298 5307 18165 118171 118182 18180 18175 18163 5214 5203 18442 5174 114457 105167 118438 318439"/>
    <route id="156682" edges="325124 16601 5317 5282 5298 5307 5153 5266 18164 18180 18175 18163 5214 5202 5212 18444 5166 105171 118438 318439"/>
    <route id="158092" edges="325124 16601 5317 5315 5134 18394 5153 5266 18164 18180 18175 18163 5214 5203 18442 5174 114457 105167 118438 318439"/>
    <route id="159771" edges="325124 16601 5317 5315 5134 18394 18165 118171 118182 18180 18175 18163 5214 5202 5212 18444 5166 105171 118438 318439"/>
    <route id="163236" edges="325124 16601 5317 5315 5134 18394 5153 5266 18164 18180 18175 18163 5214 5202 5212 18444 5166 105171 118438 318439"/>
    <route id="168949" edges="325124 16601 5317 5282 5298 5307 5153 5266 18164 18180 18175 18163 5214 5203 18442 5174 114457 105167 118438 318439"/>
    <route id="170013" edges="325124 16601 5317 5282 5298 5307 18165 118171 118182 18180 18175 18163 5214 5202 5212 18444 5166 105171 118438 318439"/>
    <route id="187693" edges="325124 16601 5317 5315 5134 18394 5153 5266 18164 18180 18175 18183 18456 18184 15885 5210 5166 105171 118438 318439"/>
    <route id="145224" edges="325124 16601 105321 114745 105293 17572 17571 5289 5313 5158 5251 1356 5262 5064 5073 105150 115487 115488 115486 117426 114457 105167 118438 318439"/>
    <route id="77439" edges="205921 6016 18361 5991 6008 14707 6010 4297 18359 325028"/>
    <route id="15334" edges="205921 6016 18361 5991 6008 14707 6010 4297 18357 4905 16109 16653 4895 17736 4901 4868 118602 4876 325003"/>
    <route id="15354" edges="205921 6016 18361 5991 6008 14707 6010 4297 18357 4905 16109 16653 4895 17736 4901 104903 104871 104894 4893 104892 114985 114510 104890 4885 104888 4787 17612 325004"/>
    <route id="190086" edges="205921 6016 18361 5991 6008 14707 6010 4297 18357 4905 16109 118338 18324 4899 4908 118346 18316 104906 18306 18307 18308 114510 104890 4885 104888 4787 17612 325004"/>
    <route id="3759" edges="218537 116514 105900 106283 106279 106284 106273 106296 106179 6267 6260 115711 118534 106188 106357 106355 106353 106362 116581 425123"/>
    <route id="147974" edges="218537 116514 105900 106283 106279 106284 106273 106296 106179 6267 6260 115711 118534 106188 106357 106355 118424 118410 118411 18409 6361 106362 116581 425123"/>
    <route id="15376" edges="205921 6016 18361 5991 6008 14707 6010 4297 18357 4905 16109 16653 4895 17736 4901 4868 4878 325005"/>
    <route id="156973" edges="205921 6016 18361 5991 6008 14707 6010 4297 18357 4905 16109 118338 18324 4899 4908 18345 118315 104906 304911"/>
    <route id="16413" edges="205921 6016 18361 5991 6008 14707 6010 4297 18357 4905 16109 16653 117735 114694 18327 118347 18345 118315 104906 304911"/>
    <route id="40143" edges="218537 18536 16564 118538 105902 315481"/>
    <route id="1590" edges="218537 116514 105900 106283 106279 106284 106273 106296 106179 6267 6260 115711 118534 106188 106357 106355 106353 106362 106360 113437 113438 113440 425129"/>
    <route id="40116" edges="218537 116514 105900 313452"/>
    <route id="145936" edges="218523 18522 5990 16640 116641 105908 14509 18562 18564 118275 18276 118256 118255 18236 18223 18224 118212 118211 105244 118492 105145 105311 105312 18556 5330 17571 5289 5313 5158 5251 1356 5262 5064 5129 5124 425127"/>
    <route id="40781" edges="218537 116514 105900 106283 106279 106284 106273 106296 116526 116548 118415 425104"/>
    <route id="151605" edges="206242 6237 18524 118557 118367 106239 6199 15778 6234 18518 6233 6211 18236 18223 18224 118212 118211 105244 118492 105145 105311 105312 18554 5285 105282 105317 116601 425124"/>
    <route id="3941" edges="206242 6237 18524 118557 118367 106239 6199 15778 6234 18518 6233 106214 106232 106204 118508 114711 106252 106248 118512 106255 4290 15803 5286 18554 5285 105282 105317 116601 425124"/>
    <route id="148335" edges="206242 6237 18524 118557 118363 106244 115777 118528 318529"/>
    <route id="40628" edges="218537 116514 105900 106283 106279 6167 18369 18532 6236 318529"/>
    <route id="40911" edges="206242 6237 18524 118557 118367 106239 6199 15778 6234 318519"/>
    <route id="41011" edges="218523 18522 105884 6197 305922"/>
    <route id="40616" edges="206242 6237 18524 118557 118363 16214 318517"/>
    <route id="40610" edges="218537 116514 105900 106283 106279 6167 18369 318533"/>
    <route id="41565" edges="205921 6016 18361 5991 6008 14707 6010 4297 18357 4905 16109 16653 117735 304900"/>
    <route id="41165" edges="206242 6237 18524 118557 118367 106239 6199 15778 6234 18518 6233 6211 18236 306231"/>
    <route id="142310" edges="218523 18522 5990 16640 116641 105908 14509 18562 18564 118275 18276 118256 118255 18236 306231"/>
    <route id="160843" edges="218523 18522 5990 16640 116641 105908 14509 18562 18564 118275 18276 118256 18267 306210"/>
    <route id="76202" edges="218537 18536 16564 118538 105902 115625 118421 118422 106282 325016"/>
    <route id="140214" edges="218537 116514 105900 106283 106279 106284 116217 115776 118418 118420 106282 325016"/>
    <route id="142352" edges="218523 18522 5990 16640 116641 105908 14509 18562 18564 118275 18276 18277 18278 18244 15588 6223 304277"/>
    <route id="41579" edges="205921 6016 18361 5991 6008 14707 6010 4297 18357 4905 16109 118338 304913"/>
    <route id="154277" edges="205921 6016 18361 5991 6008 14707 6010 4297 18357 118340 118341 118339 118309 118297 18299 18301 104609 5225 18428 5146 5189 318471"/>
    <route id="164333" edges="205921 6016 18361 5991 6008 14707 6010 4297 18357 4905 16109 118338 18324 4899 4908 18345 118315 104906 104624 5146 5189 318471"/>
    <route id="76001" edges="218537 18536 16564 118538 105902 115625 118421 106275 325017"/>
    <route id="145435" edges="205921 118352 105934 118538 105902 115625 118421 106275 325017"/>
    <route id="152351" edges="206242 6237 18524 118557 118367 106239 6199 15778 6234 18518 6233 6211 18236 18223 18224 118212 118211 105244 118492 105145 5310 5290 5301 5136 18191 318461"/>
    <route id="41150" edges="206242 6237 18524 118557 118367 106239 6199 15778 6234 18518 6233 6211 18236 6215 18221 104299 118490 105246 105244 118492 105145 5310 5290 5301 5136 18191 318461"/>
    <route id="142324" edges="218523 18522 5990 16640 116641 105908 14509 18562 18564 118275 18276 118256 118255 18236 18223 18224 118212 118211 105244 118492 105145 5310 5290 5301 5136 18191 318461"/>
    <route id="144385" edges="205921 6016 18361 5991 6008 14707 6010 4297 18357 118340 118341 118339 118309 18311 118336 18301 104609 117619 105223 105220 5140 18186 318469"/>
    <route id="159020" edges="205921 6016 18361 5991 6008 14707 6010 4297 18357 4905 16109 118338 18324 4899 118312 118300 104609 117619 105223 105220 5140 18186 318469"/>
    <route id="75198" edges="205921 6016 18361 5993 325014"/>
    <route id="41168" edges="206242 6237 18524 118557 118367 106239 6199 15778 6234 18518 6233 6211 18236 6215 18221 4258 305222"/>
    <route id="150124" edges="205921 6016 18361 5991 6008 14707 6010 4297 18357 118340 118341 118339 118309 18311 18313 18314 118344 18304 318497"/>
    <route id="160593" edges="205921 6016 18361 5991 6008 14707 6010 4297 18357 4905 16109 118338 18324 4899 4908 118346 118344 18304 318497"/>
    <route id="41818" edges="206242 6237 18524 118557 118367 106239 6199 15778 6234 18518 6233 106214 106232 106204 118508 114711 106252 106248 118512 106255 4290 15803 5286 18554 305295"/>
    <route id="142367" edges="218523 18522 5990 16640 116641 105908 14509 18562 18564 118275 18276 118256 118255 18236 18223 18224 118212 118211 105244 118492 105145 105311 105312 18554 305295"/>
    <route id="192659" edges="205921 6016 18361 5991 6008 14707 6010 4297 18357 118340 118341 118339 118309 118297 114508 105218 118197 105217 105240 105233 105138 105303 105299 305308"/>
    <route id="151693" edges="206242 6237 18524 118557 118367 106239 6199 15778 6234 18518 6233 6211 18236 18223 18224 118212 118211 105244 118492 105145 5310 5290 5301 105303 105299 305308"/>
    <route id="41287" edges="206242 6237 18524 118557 118367 106239 6199 15778 6234 18518 6233 6211 18236 6215 18221 104299 118490 105246 105244 118492 105145 5310 5290 5301 105303 105299 305308"/>
    <route id="142336" edges="218523 18522 5990 16640 116641 105908 14509 18562 18564 118275 18276 118256 118255 18236 18223 18224 118212 118211 105244 118492 105145 5310 5290 5301 105303 105299 305308"/>
    <route id="144396" edges="218523 18522 5990 16640 116641 105908 14509 18562 18564 118275 18276 118256 118255 18236 18223 18224 118212 118211 105244 118492 105145 105311 105312 18554 5285 5298 5307 18165 118171 118182 118181 118604 16765 318453"/>
    <route id="159029" edges="205921 6016 18361 5991 6008 14707 6010 4297 18357 4905 16109 118338 18324 4899 118312 118300 104609 117619 105223 105220 105235 105242 5148 18163 118172 105142 118604 16765 318453"/>
    <route id="145746" edges="205921 6016 18361 5991 6008 14707 6010 4297 18357 118340 118341 118339 14507 4899 4908 18345 118315 18318 18320 104891 104611 105188 118448 105185 105181 105171 118438 318439"/>
    <route id="160244" edges="205921 6016 18361 5991 6008 14707 6010 4297 18357 4905 16109 118338 18324 4899 4908 18345 118315 104906 18306 18307 104611 105188 118448 105185 105181 105171 118438 318439"/>
    <route id="152687" edges="205921 6016 18361 5991 6008 14707 6010 4297 18357 118340 118341 118339 14507 4899 4908 18345 118315 18318 18320 18321 114985 114510 104890 118383 18381 104607 105179 105177 5084 325002"/>
    <route id="21007" edges="205921 6016 18361 5991 6008 314708"/>
    <route id="168716" edges="218537 116514 105900 106283 106279 106284 106273 106296 106179 6267 6260 115711 118534 106188 106357 106355 6312 16005 16013 16006 6345 6321 306193"/>
    <route id="167724" edges="218523 18522 5990 16640 116641 105908 14509 18562 18564 18561 6216 18257 6220 15588 6223 4301 18294 318503"/>
    <route id="41831" edges="206242 6237 18524 118557 118367 106239 6199 15778 6234 18518 6233 106214 106232 106204 118508 114711 106252 106248 118512 106255 4290 15803 305325"/>
    <route id="152109" edges="206242 6237 18524 118557 118367 106239 6199 15778 6234 18518 6233 6211 18236 18223 18224 18225 18226 314709"/>
    <route id="188519" edges="206242 6237 18524 118557 118367 106239 6199 15778 6234 18518 6233 106214 106232 106204 6194 18231 18226 314709"/>
    <route id="144115" edges="218523 18522 5990 16640 116641 105908 14509 18562 18564 118275 18276 118256 118255 18236 18223 18224 18225 18226 314709"/>